375
5x1x1 BTo with OH; top 3 free; slab visualization
Ba  0  0  -2.03146445
Ba  0.01460791931  0.06392522409  -6.198463137
H  0.001308533318  -1.239906874  -9.123790838
O  0.001384844359  -1.75102497  -8.277789816
O  1.978473916  -0.01992121515  -4.084872909
O  -0.0516375395  -2.010057818  -4.090795507
O  2.016356834  0  0.0000009908377482
O  0  2.016356834  0.0000009908377482
O  0  -2.016356834  0.0000009908377482
O  -2.016356834  0  0.0000009908377482
O  -2.014646103  0.11989281  -8.227585104
O  2.018067565  0.11989281  -8.227585104
O  -0.0516375395  2.022655851  -4.090795507
O  -2.054239752  -0.01992121515  -4.084872909
O  0.001384844359  2.281688698  -8.277789816
Ti  -1.956139377  -1.91704081  -4.208936634
O  2.016379427  -1.858263208  -10.16569802
O  -2.016334241  -1.858263208  -10.16569802
H  0.001308533318  2.792806794  -9.123790838
Ti  -2.014343507  1.954778991  -8.471695957
Ti  2.018370161  1.954778991  -8.471695957
O  2.001646119  -1.982936101  -6.067647244
Ti  2.076574291  -1.91704081  -4.208936634
O  -2.031067549  -1.982936101  -6.067647244
O  2.016356834  2.016356834  -2.018618491
Ti  2.016356834  2.016356834  0
O  2.016356834  -2.016356834  -2.018618491
Ti  2.016356834  -2.016356834  0
O  -2.016356834  2.016356834  -2.018618491
Ti  -2.016356834  2.016356834  0
O  -2.016356834  -2.016356834  -2.018618491
Ti  -2.016356834  -2.016356834  0
O  2.001646119  2.049777567  -6.067647244
Ti  -1.956139377  2.115672858  -4.208936634
O  -2.031067549  2.049777567  -6.067647244
Ti  -2.014343507  -2.077934677  -8.471695957
Ti  2.018370161  -2.077934677  -8.471695957
Ti  2.076574291  2.115672858  -4.208936634
O  2.016379427  2.17445046  -10.16569802
O  -2.016334241  2.17445046  -10.16569802
Ba  0.01460791931  -3.968788444  -6.198463137
Ba  -4.018105749  0.06392522409  -6.198463137
Ba  4.032713668  0  -2.03146445
Ba  0  4.032713668  -2.03146445
Ba  0  -4.032713668  -2.03146445
Ba  -4.032713668  0  -2.03146445
Ba  4.047321587  0.06392522409  -6.198463137
Ba  0.01460791931  4.096638892  -6.198463137
H  -4.031405135  -1.239906874  -9.123790838
H  4.034022201  -1.239906874  -9.123790838
O  -4.031328824  -1.75102497  -8.277789816
O  4.034098512  -1.75102497  -8.277789816
O  -2.014646103  -3.912820858  -8.227585104
O  2.018067565  -3.912820858  -8.227585104
O  3.981076129  -2.010057818  -4.090795507
O  3.981076129  2.022655851  -4.090795507
O  1.978473916  4.012792453  -4.084872909
O  -2.054239752  4.012792453  -4.084872909
O  4.032713668  2.016356834  0.0000009908377482
O  2.016356834  4.032713668  0.0000009908377482
O  4.032713668  -2.016356834  0.0000009908377482
O  -2.016356834  4.032713668  0.0000009908377482
O  2.016356834  -4.032713668  0.0000009908377482
O  -4.032713668  2.016356834  0.0000009908377482
O  -2.016356834  -4.032713668  0.0000009908377482
O  -4.032713668  -2.016356834  0.0000009908377482
O  1.978473916  -4.052634883  -4.084872909
O  -2.054239752  -4.052634883  -4.084872909
O  -4.084351208  -2.010057818  -4.090795507
O  -4.084351208  2.022655851  -4.090795507
O  -2.014646103  4.152606478  -8.227585104
O  2.018067565  4.152606478  -8.227585104
O  -4.031328824  2.281688698  -8.277789816
O  4.034098512  2.281688698  -8.277789816
H  -4.031405135  2.792806794  -9.123790838
H  4.034022201  2.792806794  -9.123790838
H  0.001308533318  -5.272620542  -9.123790838
Ba  -4.018105749  -3.968788444  -6.198463137
Ba  4.047321587  -3.968788444  -6.198463137
Ba  4.032713668  4.032713668  -2.03146445
Ba  4.032713668  -4.032713668  -2.03146445
Ba  -4.032713668  4.032713668  -2.03146445
Ba  -4.032713668  -4.032713668  -2.03146445
Ba  -4.018105749  4.096638892  -6.198463137
Ba  4.047321587  4.096638892  -6.198463137
O  0.001384844359  -5.783738638  -8.277789816
O  6.011187584  -0.01992121515  -4.084872909
O  -0.0516375395  -6.042771486  -4.090795507
O  -6.047359771  0.11989281  -8.227585104
O  6.049070502  0  0.0000009908377482
O  0  6.049070502  0.0000009908377482
O  0  -6.049070502  0.0000009908377482
O  -6.049070502  0  0.0000009908377482
O  6.050781233  0.11989281  -8.227585104
O  -0.0516375395  6.055369519  -4.090795507
O  -6.08695342  -0.01992121515  -4.084872909
O  2.016379427  -5.890976876  -10.16569802
O  -2.016334241  -5.890976876  -10.16569802
Ti  -1.956139377  -5.949754478  -4.208936634
Ti  -5.988853045  -1.91704081  -4.208936634
Ti  2.076574291  -5.949754478  -4.208936634
O  0.001384844359  6.314402366  -8.277789816
Ti  -2.014343507  5.987492659  -8.471695957
Ti  2.018370161  5.987492659  -8.471695957
O  6.049093095  -1.858263208  -10.16569802
O  -6.049047909  -1.858263208  -10.16569802
O  2.001646119  -6.015649769  -6.067647244
O  -2.031067549  -6.015649769  -6.067647244
Ti  -5.988853045  2.115672858  -4.208936634
O  6.034359787  -1.982936101  -6.067647244
Ti  -6.047057175  1.954778991  -8.471695957
Ti  6.051083829  1.954778991  -8.471695957
O  6.034359787  2.049777567  -6.067647244
O  6.049070502  2.016356834  -2.018618491
Ti  6.049070502  2.016356834  0
O  2.016356834  6.049070502  -2.018618491
Ti  2.016356834  6.049070502  0
O  6.049070502  -2.016356834  -2.018618491
Ti  6.049070502  -2.016356834  0
O  -2.016356834  6.049070502  -2.018618491
Ti  -2.016356834  6.049070502  0
O  2.016356834  -6.049070502  -2.018618491
Ti  2.016356834  -6.049070502  0
O  -6.049070502  2.016356834  -2.018618491
Ti  -6.049070502  2.016356834  0
O  -2.016356834  -6.049070502  -2.018618491
Ti  -2.016356834  -6.049070502  0
O  -6.049070502  -2.016356834  -2.018618491
Ti  -6.049070502  -2.016356834  0
O  -6.063781217  -1.982936101  -6.067647244
Ti  -6.047057175  -2.077934677  -8.471695957
Ti  6.051083829  -2.077934677  -8.471695957
O  -6.063781217  2.049777567  -6.067647244
Ti  6.109287959  -1.91704081  -4.208936634
O  2.001646119  6.082491235  -6.067647244
O  -2.031067549  6.082491235  -6.067647244
O  6.049093095  2.17445046  -10.16569802
O  -6.049047909  2.17445046  -10.16569802
Ti  -2.014343507  -6.110648345  -8.471695957
Ti  2.018370161  -6.110648345  -8.471695957
Ti  -1.956139377  6.148386526  -4.208936634
Ti  6.109287959  2.115672858  -4.208936634
Ti  2.076574291  6.148386526  -4.208936634
O  2.016379427  6.207164128  -10.16569802
O  -2.016334241  6.207164128  -10.16569802
H  -4.031405135  -5.272620542  -9.123790838
H  4.034022201  -5.272620542  -9.123790838
H  0.001308533318  6.825520462  -9.123790838
O  -4.031328824  -5.783738638  -8.277789816
O  4.034098512  -5.783738638  -8.277789816
O  -6.047359771  -3.912820858  -8.227585104
O  6.050781233  -3.912820858  -8.227585104
O  6.011187584  4.012792453  -4.084872909
O  3.981076129  -6.042771486  -4.090795507
O  3.981076129  6.055369519  -4.090795507
O  6.011187584  -4.052634883  -4.084872909
O  6.049070502  4.032713668  0.0000009908377482
O  4.032713668  6.049070502  0.0000009908377482
O  6.049070502  -4.032713668  0.0000009908377482
O  -4.032713668  6.049070502  0.0000009908377482
O  4.032713668  -6.049070502  0.0000009908377482
O  -6.049070502  4.032713668  0.0000009908377482
O  -4.032713668  -6.049070502  0.0000009908377482
O  -6.049070502  -4.032713668  0.0000009908377482
O  -6.08695342  4.012792453  -4.084872909
O  -4.084351208  -6.042771486  -4.090795507
O  -4.084351208  6.055369519  -4.090795507
O  -6.08695342  -4.052634883  -4.084872909
O  -6.047359771  4.152606478  -8.227585104
O  6.050781233  4.152606478  -8.227585104
O  -4.031328824  6.314402366  -8.277789816
O  4.034098512  6.314402366  -8.277789816
H  -4.031405135  6.825520462  -9.123790838
H  4.034022201  6.825520462  -9.123790838
Ba  0.01460791931  -8.001502112  -6.198463137
Ba  -8.050819417  0.06392522409  -6.198463137
Ba  8.065427336  0  -2.03146445
Ba  0  8.065427336  -2.03146445
Ba  0  -8.065427336  -2.03146445
Ba  -8.065427336  0  -2.03146445
Ba  8.080035255  0.06392522409  -6.198463137
Ba  0.01460791931  8.12935256  -6.198463137
H  -8.064118803  -1.239906874  -9.123790838
H  8.066735869  -1.239906874  -9.123790838
O  -2.014646103  -7.945534526  -8.227585104
O  2.018067565  -7.945534526  -8.227585104
O  -8.064042492  -1.75102497  -8.277789816
O  8.066812181  -1.75102497  -8.277789816
O  8.013789797  -2.010057818  -4.090795507
O  8.013789797  2.022655851  -4.090795507
O  1.978473916  8.045506121  -4.084872909
O  -2.054239752  8.045506121  -4.084872909
O  8.065427336  2.016356834  0.0000009908377482
O  2.016356834  8.065427336  0.0000009908377482
O  8.065427336  -2.016356834  0.0000009908377482
O  -2.016356834  8.065427336  0.0000009908377482
O  2.016356834  -8.065427336  0.0000009908377482
O  -8.065427336  2.016356834  0.0000009908377482
O  -2.016356834  -8.065427336  0.0000009908377482
O  -8.065427336  -2.016356834  0.0000009908377482
O  1.978473916  -8.085348551  -4.084872909
O  -2.054239752  -8.085348551  -4.084872909
O  -8.117064876  -2.010057818  -4.090795507
O  -8.117064876  2.022655851  -4.090795507
O  -8.064042492  2.281688698  -8.277789816
O  8.066812181  2.281688698  -8.277789816
O  -2.014646103  8.185320146  -8.227585104
O  2.018067565  8.185320146  -8.227585104
Ti  -5.988853045  -5.949754478  -4.208936634
O  6.049093095  -5.890976876  -10.16569802
O  -6.049047909  -5.890976876  -10.16569802
Ti  -6.047057175  5.987492659  -8.471695957
Ti  6.051083829  5.987492659  -8.471695957
O  6.034359787  -6.015649769  -6.067647244
Ti  6.109287959  -5.949754478  -4.208936634
H  -8.064118803  2.792806794  -9.123790838
H  8.066735869  2.792806794  -9.123790838
O  -6.063781217  -6.015649769  -6.067647244
O  6.049070502  6.049070502  -2.018618491
Ti  6.049070502  6.049070502  0
O  6.049070502  -6.049070502  -2.018618491
Ti  6.049070502  -6.049070502  0
O  -6.049070502  6.049070502  -2.018618491
Ti  -6.049070502  6.049070502  0
O  -6.049070502  -6.049070502  -2.018618491
Ti  -6.049070502  -6.049070502  0
O  6.034359787  6.082491235  -6.067647244
Ti  -5.988853045  6.148386526  -4.208936634
O  -6.063781217  6.082491235  -6.067647244
Ti  -6.047057175  -6.110648345  -8.471695957
Ti  6.051083829  -6.110648345  -8.471695957
O  6.049093095  6.207164128  -10.16569802
O  -6.049047909  6.207164128  -10.16569802
Ti  6.109287959  6.148386526  -4.208936634
Ba  -4.018105749  -8.001502112  -6.198463137
Ba  4.047321587  -8.001502112  -6.198463137
Ba  -8.050819417  -3.968788444  -6.198463137
Ba  8.080035255  -3.968788444  -6.198463137
Ba  8.065427336  4.032713668  -2.03146445
Ba  4.032713668  8.065427336  -2.03146445
Ba  8.065427336  -4.032713668  -2.03146445
Ba  -4.032713668  8.065427336  -2.03146445
Ba  4.032713668  -8.065427336  -2.03146445
Ba  -8.065427336  4.032713668  -2.03146445
Ba  -4.032713668  -8.065427336  -2.03146445
Ba  -8.065427336  -4.032713668  -2.03146445
Ba  -8.050819417  4.096638892  -6.198463137
Ba  8.080035255  4.096638892  -6.198463137
Ba  -4.018105749  8.12935256  -6.198463137
Ba  4.047321587  8.12935256  -6.198463137
H  0.001308533318  -9.305334211  -9.123790838
H  -8.064118803  -5.272620542  -9.123790838
H  8.066735869  -5.272620542  -9.123790838
O  0.001384844359  -9.816452306  -8.277789816
O  -8.064042492  -5.783738638  -8.277789816
O  8.066812181  -5.783738638  -8.277789816
O  -6.047359771  -7.945534526  -8.227585104
O  6.050781233  -7.945534526  -8.227585104
O  8.013789797  -6.042771486  -4.090795507
O  6.011187584  8.045506121  -4.084872909
O  10.04390125  -0.01992121515  -4.084872909
O  8.013789797  6.055369519  -4.090795507
O  6.011187584  -8.085348551  -4.084872909
O  -0.0516375395  -10.07548515  -4.090795507
O  -10.08007344  0.11989281  -8.227585104
O  8.065427336  6.049070502  0.0000009908377482
O  6.049070502  8.065427336  0.0000009908377482
O  10.08178417  0  0.0000009908377482
O  0  10.08178417  0.0000009908377482
O  8.065427336  -6.049070502  0.0000009908377482
O  -6.049070502  8.065427336  0.0000009908377482
O  6.049070502  -8.065427336  0.0000009908377482
O  -8.065427336  6.049070502  0.0000009908377482
O  -6.049070502  -8.065427336  0.0000009908377482
O  -8.065427336  -6.049070502  0.0000009908377482
O  -6.08695342  8.045506121  -4.084872909
O  -8.117064876  -6.042771486  -4.090795507
O  -6.08695342  -8.085348551  -4.084872909
O  2.016379427  -9.923690544  -10.16569802
O  -2.016334241  -9.923690544  -10.16569802
O  -8.117064876  6.055369519  -4.090795507
H  -4.031405135  -9.305334211  -9.123790838
H  4.034022201  -9.305334211  -9.123790838
Ti  -1.956139377  -9.982468146  -4.208936634
O  -6.047359771  8.185320146  -8.227585104
O  6.050781233  8.185320146  -8.227585104
Ti  2.076574291  -9.982468146  -4.208936634
Ti  -10.02156671  -1.91704081  -4.208936634
Ti  -2.014343507  10.02020633  -8.471695957
Ti  2.018370161  10.02020633  -8.471695957
O  -8.064042492  6.314402366  -8.277789816
Ti  -10.02156671  2.115672858  -4.208936634
O  8.066812181  6.314402366  -8.277789816
O  2.001646119  -10.04836344  -6.067647244
O  10.08180676  -1.858263208  -10.16569802
O  -2.031067549  -10.04836344  -6.067647244
O  10.06707346  -1.982936101  -6.067647244
Ti  -10.07977084  1.954778991  -8.471695957
O  10.06707346  2.049777567  -6.067647244
O  10.08178417  2.016356834  -2.018618491
Ti  10.08178417  2.016356834  0
O  2.016356834  10.08178417  -2.018618491
Ti  2.016356834  10.08178417  0
O  10.08178417  -2.016356834  -2.018618491
Ti  10.08178417  -2.016356834  0
O  -2.016356834  10.08178417  -2.018618491
Ti  -2.016356834  10.08178417  0
Ti  -10.07977084  -2.077934677  -8.471695957
O  10.08180676  2.17445046  -10.16569802
H  -8.064118803  6.825520462  -9.123790838
H  8.066735869  6.825520462  -9.123790838
O  -4.031328824  -9.816452306  -8.277789816
O  4.034098512  -9.816452306  -8.277789816
O  -10.08007344  -3.912820858  -8.227585104
O  10.04390125  4.012792453  -4.084872909
O  10.04390125  -4.052634883  -4.084872909
O  3.981076129  -10.07548515  -4.090795507
O  10.08178417  4.032713668  0.0000009908377482
O  4.032713668  10.08178417  0.0000009908377482
O  10.08178417  -4.032713668  0.0000009908377482
O  -4.032713668  10.08178417  0.0000009908377482
O  -4.084351208  -10.07548515  -4.090795507
O  -10.08007344  4.152606478  -8.227585104
Ba  -8.050819417  -8.001502112  -6.198463137
Ba  8.080035255  -8.001502112  -6.198463137
Ba  8.065427336  8.065427336  -2.03146445
Ba  8.065427336  -8.065427336  -2.03146445
Ba  -8.065427336  8.065427336  -2.03146445
Ba  -8.065427336  -8.065427336  -2.03146445
Ba  -8.050819417  8.12935256  -6.198463137
Ba  8.080035255  8.12935256  -6.198463137
O  6.049093095  -9.923690544  -10.16569802
O  -6.049047909  -9.923690544  -10.16569802
Ti  -5.988853045  -9.982468146  -4.208936634
Ti  -10.02156671  -5.949754478  -4.208936634
O  10.08180676  -5.890976876  -10.16569802
Ti  -6.047057175  10.02020633  -8.471695957
Ti  6.109287959  -9.982468146  -4.208936634
Ti  6.051083829  10.02020633  -8.471695957
O  6.034359787  -10.04836344  -6.067647244
Ti  -10.07977084  5.987492659  -8.471695957
O  10.06707346  -6.015649769  -6.067647244
O  -6.063781217  -10.04836344  -6.067647244
O  10.08178417  6.049070502  -2.018618491
Ti  10.08178417  6.049070502  0
O  6.049070502  10.08178417  -2.018618491
Ti  6.049070502  10.08178417  0
O  10.08178417  -6.049070502  -2.018618491
Ti  10.08178417  -6.049070502  0
O  -6.049070502  10.08178417  -2.018618491
Ti  -6.049070502  10.08178417  0
Ti  -10.02156671  6.148386526  -4.208936634
O  10.06707346  6.082491235  -6.067647244
Ti  -10.07977084  -6.110648345  -8.471695957
O  10.08180676  6.207164128  -10.16569802
H  -8.064118803  -9.305334211  -9.123790838
H  8.066735869  -9.305334211  -9.123790838
O  -8.064042492  -9.816452306  -8.277789816
O  8.066812181  -9.816452306  -8.277789816
O  -10.08007344  -7.945534526  -8.227585104
O  10.04390125  8.045506121  -4.084872909
O  8.013789797  -10.07548515  -4.090795507
O  10.04390125  -8.085348551  -4.084872909
O  10.08178417  8.065427336  0.0000009908377482
O  8.065427336  10.08178417  0.0000009908377482
O  10.08178417  -8.065427336  0.0000009908377482
O  -8.065427336  10.08178417  0.0000009908377482
O  -8.117064876  -10.07548515  -4.090795507
O  -10.08007344  8.185320146  -8.227585104
Ti  -10.02156671  -9.982468146  -4.208936634
O  10.08180676  -9.923690544  -10.16569802
Ti  -10.07977084  10.02020633  -8.471695957
O  10.06707346  -10.04836344  -6.067647244
O  10.08178417  10.08178417  -2.018618491
Ti  10.08178417  10.08178417  0