300
HDown Tight SmallSlab
O   -3.877268583   -5.92399961   -4.001957772
O   -3.877268583   10.20685506   -4.001957772
O   -3.876227973   2.138806694   -4.000550632
O   -3.876227973   -13.99204798   -4.000550632
O   -3.875418437   6.172919555   -3.999997285
O   -3.875418437   -9.957935118   -3.999997285
O   -3.874694262   -1.895239225   -4.009476787
O   -3.874694262   14.23561545   -4.009476787
Ti   -2.028274034   -6.059754702   -4.009534779
Ti   -2.028274034   10.07109997   -4.009534779
Ti   -2.027722041   -2.023755832   -4.016604348
Ti   -2.027722041   14.10709884   -4.016604348
Ti   -2.021822165   6.027675601   -4.012328639
Ti   -2.021822165   -10.10317907   -4.012328639
O   -2.017863167   4.023513847   -8.054708719
O   -2.017863167   -12.10734083   -8.054708719
O   -2.009773326   8.030868629   -8.064655151
O   -2.009773326   -8.099986043   -8.064655151
O   -2.006773468   -4.073649099   -8.074163567
O   -2.006773468   12.05720557   -8.074163567
O   -2.00332049   -0.03045769021   -8.081107709
O   -2.00332049   16.10039698   -8.081107709
Ti   -2.002635953   1.992866703   -4.017790486
Ti   -2.002635953   -14.13798797   -4.017790486
O   -1.999797891   -4.064611965   0.0510128782
O   -1.999797891   12.06624271   0.0510128782
O   -1.99979359   -0.03155143555   0.05072130009
O   -1.99979359   16.09930324   0.05072130009
O   -1.999789654   4.000930994   0.05093195373
O   -1.999789654   -12.12992368   0.05093195373
O   -1.999750255   8.033755145   0.05095483696
O   -1.999750255   -8.097099527   0.05095483696
O   -1.96399459   2.092418763   -6.046689831
O   -1.96399459   -14.03843591   -6.046689831
O   -1.940512142   -5.970154293   -6.03755536
O   -1.940512142   10.16070038   -6.03755536
O   -1.939992989   -1.937517357   -6.050360964
O   -1.939992989   14.19333732   -6.050360964
O   -1.939114295   6.13189721   -6.031119884
O   -1.939114295   -9.998957463   -6.031119884
O   -1.934543274   -1.934869549   -1.976631404
O   -1.934543274   14.19598512   -1.976631404
O   -1.934481845   6.130753739   -1.976716604
O   -1.934481845   -10.00010093   -1.976716604
O   -1.934473609   -5.967560197   -1.976713601
O   -1.934473609   10.16329448   -1.976713601
O   -1.93437893   2.097880077   -1.976785025
O   -1.93437893   -14.0329746   -1.976785025
O   -1.900010137   0.1457725629   -4.013950902
O   -1.900010137   -15.98508211   -4.013950902
O   -1.896816255   -3.873048419   -4.009240559
O   -1.896816255   12.25780625   -4.009240559
O   -1.895771385   -7.900898349   -4.003128785
O   -1.895771385   8.229956323   -4.003128785
O   -1.895452185   4.192564375   -4.009389288
O   -1.895452185   -11.9382903   -4.009389288
Ti   -1.84597502   2.204528368   -7.952929131
Ti   -1.84597502   -13.9263263   -7.952929131
Ti   -1.844919199   -5.882744792   -7.940959661
Ti   -1.844919199   10.24810988   -7.940959661
Ti   -1.844822326   -1.839231346   -7.952008964
Ti   -1.844822326   14.29162333   -7.952008964
Ti   -1.84075074   6.214795525   -7.933316707
Ti   -1.84075074   -9.916059147   -7.933316707
Ti   -1.839682735   -1.839747383   -0.07327648984
Ti   -1.839682735   14.29110729   -0.07327648984
Ti   -1.839595386   6.225574455   -0.07341340652
Ti   -1.839595386   -9.905280217   -0.07341340652
Ti   -1.839479792   2.19278705   -0.07296256083
Ti   -1.839479792   -13.93806762   -0.07296256083
Ti   -1.83939566   -5.872692156   -0.07296133287
Ti   -1.83939566   10.25816252   -0.07296133287
O   -0.05692135862   2.065434725   -8.032447938
O   -0.05692135862   -14.06541995   -8.032447938
O   -0.03825404521   -6.039009017   -8.067202564
O   -0.03825404521   10.09184566   -8.067202564
O   -0.03822221057   -2.006612657   -8.0837098
O   -0.03822221057   14.12424201   -8.0837098
O   -0.03800406818   6.072806861   -8.057500855
O   -0.03800406818   -10.05804781   -8.057500855
O   -0.03143321252   -1.999750331   0.05100466477
O   -0.03143321252   14.13110434   0.05100466477
O   -0.03132656458   6.065452046   0.05093413059
O   -0.03132656458   -10.06540263   0.05093413059
O   -0.03131342358   2.0328023   0.05087843882
O   -0.03131342358   -14.09805237   0.05087843882
O   -0.03118296287   -6.032627866   0.05089136568
O   -0.03118296287   10.09822681   0.05089136568
Ba   0.08625558804   -3.944895896   -6.109132786
Ba   0.08625558804   12.18595878   -6.109132786
Ba   0.08777566138   -7.985459351   -6.102374189
Ba   0.08777566138   8.145395322   -6.102374189
Ba   0.08824495674   -3.944565506   -1.912482874
Ba   0.08824495674   12.18628917   -1.912482874
Ba   0.08827884323   0.08807900412   -1.912669086
Ba   0.08827884323   -16.04277567   -1.912669086
Ba   0.08832592919   4.120706436   -1.912325512
Ba   0.08832592919   -12.01014824   -1.912325512
Ba   0.08840586927   -7.977211144   -1.912758528
Ba   0.08840586927   8.153643528   -1.912758528
O   0.1082397604   2.127024737   -4.010435469
O   0.1082397604   -14.00382993   -4.010435469
Ba   0.1124739912   0.1075704296   -6.15302825
Ba   0.1124739912   -16.02328424   -6.15302825
Ba   0.1168035884   4.084211352   -6.132688587
Ba   0.1168035884   -12.04664332   -6.132688587
O   0.1491643683   -1.901800597   -4.014584801
O   0.1491643683   14.22905408   -4.014584801
O   0.1506970567   6.180074245   -4.001286722
O   0.1506970567   -9.950780427   -4.001286722
O   0.152482844   -5.919535251   -4.004206638
O   0.152482844   10.21131942   -4.004206638
Ti   1.989813812   1.988180221   -4.096185195
Ti   1.989813812   -14.14267445   -4.096185195
Ti   1.993997742   -2.001626553   -4.01263982
Ti   1.993997742   14.12922812   -4.01263982
Ti   1.998268378   6.029950578   -4.007384941
Ti   1.998268378   -10.10090409   -4.007384941
Ti   2.00013635   -6.04676075   -4.00611263
Ti   2.00013635   10.08409392   -4.00611263
O   2.029374728   8.034441663   -8.07649848
O   2.029374728   -8.096413009   -8.07649848
O   2.031305856   -4.081571835   -8.086855015
O   2.031305856   12.04928284   -8.086855015
O   2.032933524   -4.064152849   0.05086660562
O   2.032933524   12.06670182   0.05086660562
O   2.033040624   8.033792794   0.05089224078
O   2.033040624   -8.097061878   0.05089224078
O   2.033089389   -0.03144643458   0.05063186943
O   2.033089389   16.09940824   0.05063186943
O   2.03330142   4.000891242   0.05090340252
O   2.03330142   -12.12996343   0.05090340252
O   2.06204821   -0.06912513172   -8.086710417
O   2.06204821   16.06172954   -8.086710417
O   2.06558139   4.058936193   -8.09625242
O   2.06558139   -12.07191848   -8.09625242
O   2.073551697   1.996226536   -10.16464947
O   2.073551697   -14.13462814   -10.16464947
O   2.092681008   -5.970303149   -6.042348416
O   2.092681008   10.16055152   -6.042348416
O   2.093251904   6.133766708   -6.038841293
O   2.093251904   -9.997087964   -6.038841293
O   2.094722621   -1.956487386   -6.053815182
O   2.094722621   14.17436729   -6.053815182
O   2.098112392   -1.934667889   -1.976818386
O   2.098112392   14.19618678   -1.976818386
O   2.098383706   6.130830364   -1.976694462
O   2.098383706   -10.00002431   -1.976694462
O   2.098537545   2.098042025   -1.976899511
O   2.098537545   -14.03281265   -1.976899511
O   2.098590041   -5.967114457   -1.976757606
O   2.098590041   10.16374022   -1.976757606
O   2.100632502   2.097039598   -5.940208315
O   2.100632502   -14.03381507   -5.940208315
O   2.122480422   4.198131   -3.991782962
O   2.122480422   -11.93272367   -3.991782962
O   2.127539558   0.1063477669   -4.009938879
O   2.127539558   -16.02450691   -4.009938879
O   2.135449898   -7.895556009   -4.002057961
O   2.135449898   8.235298663   -4.002057961
O   2.140030994   -3.875084331   -4.003324799
O   2.140030994   12.25577034   -4.003324799
Ti   2.192863366   -5.890384127   -7.943791771
Ti   2.192863366   10.24047055   -7.943791771
Ti   2.193039018   -1.83966211   -0.07309098259
Ti   2.193039018   14.29119256   -0.07309098259
Ti   2.193138042   6.225615371   -0.07327184012
Ti   2.193138042   -9.905239301   -0.07327184012
Ti   2.193205433   -5.872307935   -0.07295293837
Ti   2.193205433   10.25854674   -0.07295293837
Ti   2.193304065   2.192644406   -0.07352053233
Ti   2.193304065   -13.93821027   -0.07352053233
Ti   2.202191008   6.213839933   -7.945001151
Ti   2.202191008   -9.917014739   -7.945001151
Ti   2.202856577   -1.863634266   -7.95454842
Ti   2.202856577   14.26722041   -7.95454842
H   2.221066849   1.07121201   -10.43768998
H   2.221066849   -15.05964266   -10.43768998
Ti   2.245096505   2.250547206   -8.361991617
Ti   2.245096505   -13.88030747   -8.361991617
O   4.001134958   -1.999830656   0.05085668958
O   4.001134958   14.13102402   0.05085668958
O   4.001274665   -6.032446939   0.0511608925
O   4.001274665   10.09840773   0.0511608925
O   4.001296257   6.065559155   0.05111500869
O   4.001296257   -10.06529552   0.05111500869
O   4.001501184   2.03264198   0.05077475129
O   4.001501184   -14.09821269   0.05077475129
O   4.003921123   -6.042472031   -8.061758985
O   4.003921123   10.08838264   -8.061758985
O   4.012626587   6.085138626   -8.050236728
O   4.012626587   -10.04571605   -8.050236728
O   4.021465813   -2.024263816   -8.068993388
O   4.021465813   14.10659086   -8.068993388
Ba   4.071531733   4.077552283   -6.120474166
Ba   4.071531733   -12.05330239   -6.120474166
O   4.081079389   2.059430158   -8.041096335
O   4.081079389   -14.07142451   -8.041096335
Ba   4.082645418   0.1123007584   -6.134533325
Ba   4.082645418   -16.01855391   -6.134533325
Ba   4.110680703   -7.984010956   -6.089442402
Ba   4.110680703   8.146843717   -6.089442402
Ba   4.112745728   -3.949604292   -6.094188552
Ba   4.112745728   12.18125038   -6.094188552
Ba   4.120924936   -7.977260424   -1.912613088
Ba   4.120924936   8.153594249   -1.912613088
Ba   4.12108491   0.08798741837   -1.91266426
Ba   4.12108491   -16.04286725   -1.91266426
Ba   4.12111622   4.120859118   -1.912346939
Ba   4.12111622   -12.00999555   -1.912346939
Ba   4.121197697   -3.944577322   -1.912669097
Ba   4.121197697   12.18627735   -1.912669097
O   4.18249084   6.170686576   -3.99687642
O   4.18249084   -9.960168097   -3.99687642
O   4.190023326   -5.925217114   -4.000935507
O   4.190023326   10.20563756   -4.000935507
O   4.192590834   -1.898612523   -4.007832159
O   4.192590834   14.23224215   -4.007832159
O   4.195814605   2.122457373   -3.990270112
O   4.195814605   -14.0083973   -3.990270112
Ti   6.025514184   6.02776143   -4.007854874
Ti   6.025514184   -10.10309324   -4.007854874
Ti   6.028245375   -2.021308827   -4.012139906
Ti   6.028245375   14.10954585   -4.012139906
Ti   6.028492359   1.997286029   -4.009236578
Ti   6.028492359   -14.13356864   -4.009236578
Ti   6.034731111   -6.058504981   -4.004412717
Ti   6.034731111   10.07234969   -4.004412717
O   6.063816859   8.033734767   -8.051773853
O   6.063816859   -8.097119906   -8.051773853
O   6.065428588   8.033764073   0.05079003367
O   6.065428588   -8.097090599   0.05079003367
O   6.065586481   4.001039296   0.05085167571
O   6.065586481   -12.12981538   0.05085167571
O   6.065622723   -0.03146640457   0.05077003867
O   6.065622723   16.09938827   0.05077003867
O   6.065780567   -4.064381093   0.05090767276
O   6.065780567   12.06647358   0.05090767276
O   6.066994569   -4.079119973   -8.063206601
O   6.066994569   12.0517347   -8.063206601
O   6.071566742   -0.04432207673   -8.060570785
O   6.071566742   16.0865326   -8.060570785
O   6.076042746   4.025840615   -8.040232577
O   6.076042746   -12.10501406   -8.040232577
O   6.12588251   6.132700663   -6.019551141
O   6.12588251   -9.99815401   -6.019551141
O   6.128212796   -5.971941019   -6.028901067
O   6.128212796   10.15891365   -6.028901067
O   6.129728605   -1.942280726   -6.033251514
O   6.129728605   14.18857395   -6.033251514
O   6.13100761   -5.967398061   -1.976790874
O   6.13100761   10.16345661   -1.976790874
O   6.131100056   6.130933065   -1.976829774
O   6.131100056   -9.999921607   -1.976829774
O   6.131204027   -1.934496689   -1.976708956
O   6.131204027   14.19635798   -1.976708956
O   6.131324525   2.098227352   -1.976906163
O   6.131324525   -14.03262732   -1.976906163
O   6.142428511   2.098104636   -6.026187762
O   6.142428511   -14.03275004   -6.026187762
O   6.164374409   4.186224688   -3.997175801
O   6.164374409   -11.94462998   -3.997175801
O   6.168166431   -7.905601658   -3.996614288
O   6.168166431   8.225253014   -3.996614288
O   6.173760324   -3.876040414   -4.00054561
O   6.173760324   12.25481426   -4.00054561
O   6.17742194   0.1485003916   -4.00233662
O   6.17742194   -15.98235428   -4.00233662
Ti   6.192149618   2.211422874   -7.936532422
Ti   6.192149618   -13.9194318   -7.936532422
Ti   6.216014425   -1.844892904   -7.93454269
Ti   6.216014425   14.28596177   -7.93454269
Ti   6.217584747   6.22076983   -7.92214354
Ti   6.217584747   -9.910084843   -7.92214354
Ti   6.220609676   -5.884274917   -7.932255229
Ti   6.220609676   10.24657976   -7.932255229
Ti   6.225806929   -1.839698496   -0.0733873072
Ti   6.225806929   14.29115618   -0.0733873072
Ti   6.22583392   -5.87262429   -0.07346114982
Ti   6.22583392   10.25823038   -0.07346114982
Ti   6.225838255   6.225633796   -0.07352052628
Ti   6.225838255   -9.905220876   -0.07352052628
Ti   6.225886474   2.192912733   -0.07312189576
Ti   6.225886474   -13.93794194   -0.07312189576
O   8.023184494   2.035133734   -8.078548695
O   8.023184494   -14.09572094   -8.078548695
O   8.027461938   6.073080526   -8.047840805
O   8.027461938   -10.05777415   -8.047840805
O   8.031870165   -6.041802546   -8.059033895
O   8.031870165   10.08905213   -8.059033895
O   8.033131014   -2.012760673   -8.066339141
O   8.033131014   14.118094   -8.066339141
O   8.033916296   -1.999921805   0.05100462001
O   8.033916296   14.13093287   0.05100462001
O   8.033953877   -6.03283893   0.05095368482
O   8.033953877   10.09801574   0.05095368482
O   8.033958712   6.065493499   0.05089912906
O   8.033958712   -10.06536117   0.05089912906
O   8.033990446   2.032721958   0.05095410744
O   8.033990446   -14.09813271   0.05095410744
