19
BTO slab with H interaction      
Ti              2.01638206          2.01631175         36.44866031
O              -0.00004576          2.01645326         36.40125254
O               2.01635527          0.00024968         36.40124940
Ba               0.00000314          0.00001505         38.23827062
Ti               2.01618219          2.01623016         40.32918576
O               0.00011495          2.01638881         40.32856538
O               2.01638939          0.00008532         40.32856373
O               2.01636130          2.01636987         38.29988031
Ba               0.00000000          0.00000000         42.33416800
Ti               2.01626788          2.01607628         44.31544716
O               0.00017362          2.01647603         44.33388744
O               2.01642103          0.00045419         44.33390198
O               2.01637675          2.01637916         42.33509287
Ba               0.00001591         -0.00006130         46.42064756
Ti               2.01627447          2.01621586         48.20359737
O               0.00044369          2.01656342         48.25957791
O               2.01652885          0.00063656         48.25957772
O               2.01637408          2.01637944         46.36662593
H               2.01636055          2.01636055         32.35407709
