840
HDown
Ba   0.08827884323   0.08807900412   -1.912669086
Ba   0.1154675097   0.1100810423   -6.154715545
O   -1.899363942   0.14563966   -4.014239818
O   0.1496124201   -1.901391233   -4.015258875
O   -0.03143321252   -1.999750331   0.05100466477
O   -1.99979359   -0.03155143555   0.05072130009
O   -2.003319818   -0.02948866622   -8.079893213
O   -0.03736390997   -2.008240722   -8.083093586
O   -0.03131342358   2.0328023   0.05087843882
O   2.033089389   -0.03144643458   0.05063186943
O   2.062359336   -0.07113614803   -8.081746024
O   -0.05453162977   2.067531292   -8.020020866
O   0.1089114069   2.126999849   -4.010453083
O   2.127406074   0.1084242599   -4.010574625
H   2.132674313   1.035530956   -10.3777203
Ti   -1.839682735   -1.839747383   -0.07327648984
Ti   -1.844400225   -1.839160469   -7.9516591
O   -1.934543274   -1.934869549   -1.976631404
O   -1.940232185   -1.938381906   -6.051322022
Ti   1.989850023   1.987190883   -4.09452869
Ti   -2.003054541   1.993012012   -4.016512403
Ti   1.99469445   -2.003199223   -4.012425139
O   -1.93437893   2.097880077   -1.976785025
O   2.098112392   -1.934667889   -1.976818386
Ti   -1.839479792   2.19278705   -0.07296256083
Ti   2.193039018   -1.83966211   -0.07309098259
O   2.066303767   1.981381625   -10.1421258
Ti   -2.026523132   -2.022893675   -4.016203148
O   2.095895375   -1.958946779   -6.053358708
O   -1.96658903   2.092864976   -6.045825319
Ti   -1.84645869   2.205243489   -7.950643325
Ti   2.203651524   -1.86638801   -7.95393242
O   2.098537545   2.098042025   -1.976899511
O   2.100292845   2.097966291   -5.945478961
Ti   2.193304065   2.192644406   -0.07352053233
Ti   2.245256366   2.257189267   -8.342568465
Ba   -3.944379296   0.08795316652   -1.912658867
Ba   0.08759509219   -3.944459504   -6.107704134
Ba   0.08824495674   -3.944565506   -1.912482874
Ba   -3.947649362   0.09427565904   -6.112266518
Ba   4.080137588   0.1151443639   -6.134296046
Ba   0.1182874763   4.08393841   -6.129263394
Ba   0.08832592919   4.120706436   -1.912325512
Ba   4.12108491   0.08798741837   -1.91266426
O   -1.895872577   -3.872827635   -4.010370617
O   -3.87406998   -1.89483165   -4.010754875
O   2.14012137   -3.875405033   -4.003381294
O   -3.87638528   2.138636918   -3.99986944
O   -1.999789654   4.000930994   0.05093195373
O   4.001134958   -1.999830656   0.05085668958
O   2.03330142   4.000891242   0.05090340252
O   4.001501184   2.03264198   0.05077475129
O   -2.018293882   4.024034988   -8.054084005
O   4.022567859   -2.026577973   -8.070010538
O   -4.064068977   -2.000043724   0.05091994431
O   -1.999797891   -4.064611965   0.0510128782
O   -4.072861257   -2.004234404   -8.078015817
O   -2.007667151   -4.073551393   -8.076452109
O   -4.064076925   2.032597081   0.05080885192
O   2.032933524   -4.064152849   0.05086660562
O   2.031997272   -4.082001527   -8.08631242
O   2.068474061   4.067308716   -8.090409885
O   -4.094497483   2.040626789   -8.084794336
O   4.084851803   2.065309004   -8.026455678
O   -1.89506957   4.191850625   -4.009642266
O   4.191523289   -1.898269005   -4.00812277
O   4.19525035   2.121720301   -3.989821521
O   2.122353101   4.197543938   -3.99086872
Ba   -3.94435161   -3.944784583   -1.912324892
Ba   -3.947012102   -3.945353913   -6.103883431
Ba   -3.948970969   4.110154072   -6.092535152
Ba   4.113258646   -3.950121869   -6.09177546
Ba   -3.944402923   4.12071926   -1.912506662
Ba   4.121197697   -3.944577322   -1.912669097
Ba   4.071968077   4.077252464   -6.112025427
Ba   4.12111622   4.120859118   -1.912346939
O   0.1524219548   -5.919124773   -4.005030287
O   -5.920537209   0.1517351268   -4.006834531
O   -6.032465304   -0.03167437162   0.05092867796
O   -0.03118296287   -6.032627866   0.05089136568
O   -0.03739620636   -6.039321922   -8.067145566
O   -6.042387346   -0.03697189996   -8.06850908
O   -0.03132656458   6.065452046   0.05093413059
O   6.065622723   -0.03146640457   0.05077003867
O   6.072707329   -0.04282387117   -8.054170289
O   -0.03649866907   6.075065168   -8.04793836
Ti   -5.872240359   -1.839766631   -0.07288608243
Ti   -1.83939566   -5.872692156   -0.07296133287
Ti   -1.845168078   -5.883068171   -7.94116759
Ti   -5.884580532   -1.843210334   -7.942727285
O   6.177929757   0.1468830262   -4.000790782
O   0.1497722644   6.180617302   -3.999932731
Ti   -5.87221413   2.192815963   -0.07305665936
Ti   2.193205433   -5.872307935   -0.07295293837
O   -5.9671523   -1.934837206   -1.976667152
O   -1.934473609   -5.967560197   -1.976713601
O   -1.941319174   -5.970069725   -6.038431405
O   -5.971031415   -1.941397339   -6.040214974
Ti   2.193337141   -5.891865573   -7.942627846
Ti   -5.900679255   2.20226197   -7.945480213
O   -5.967125861   2.097762545   -1.976773379
O   2.098590041   -5.967114457   -1.976757606
O   2.092913736   -5.970852941   -6.042157809
O   -5.976835398   2.09478496   -6.042844255
Ti   6.028943948   1.996330431   -4.007701739
Ti   1.998077037   6.029987327   -4.00482613
Ti   6.027611845   -2.020275391   -4.011846139
Ti   -2.02119987   6.027410867   -4.011604809
Ti   2.00048639   -6.047350446   -4.005249902
Ti   -6.048593208   2.000476827   -4.005969586
Ti   -2.027442853   -6.059468513   -4.009321325
Ti   -6.061144463   -2.025820329   -4.010528782
O   -1.934481845   6.130753739   -1.976716604
O   6.131204027   -1.934496689   -1.976708956
O   6.130261067   -1.944020979   -6.032848416
O   -1.941539329   6.132869896   -6.030271636
O   2.098383706   6.130830364   -1.976694462
O   6.131324525   2.098227352   -1.976906163
Ti   -1.840789096   6.214790251   -7.931728417
O   2.09226847   6.13633185   -6.0341167
Ti   6.215585931   -1.844721038   -7.933688058
Ti   -1.839595386   6.225574455   -0.07341340652
Ti   6.225806929   -1.839698496   -0.0733873072
O   6.146682998   2.095970868   -6.021190138
Ti   6.192180936   2.211919532   -7.930778162
Ti   2.204627059   6.213911198   -7.9381194
Ti   2.193138042   6.225615371   -0.07327184012
Ti   6.225886474   2.192912733   -0.07312189576
O   -3.877075427   -5.923418453   -4.003063185
O   -5.924190588   -3.876140462   -4.003830302
O   -6.032393251   4.000891472   0.05080133535
O   4.001274665   -6.032446939   0.0511608925
O   4.005607396   -6.042923398   -8.060752292
O   4.189673021   -5.92443349   -4.001598565
O   -5.925231384   4.189671577   -4.001131044
O   -6.049715155   4.021078187   -8.050944125
O   6.065586481   4.001039296   0.05085167571
O   4.001296257   6.065559155   0.05111500869
O   -6.032359271   -4.064326199   0.05097876225
O   -4.064173517   -6.032919968   0.05069448698
O   -4.071843117   -6.039422095   -8.068832219
O   -6.038180773   -4.073980963   -8.070809578
O   -3.875576625   6.173112733   -3.999580593
O   6.173822711   -3.875975426   -4.000493913
O   4.017704826   6.086877126   -8.032701283
O   6.081439682   4.02855087   -8.024277897
O   -4.064061565   6.065341558   0.05090504827
O   6.065780567   -4.064381093   0.05090767276
O   -4.076759109   6.070184144   -8.057132337
O   6.06877039   -4.079169165   -8.063687872
O   6.164953091   4.185529947   -3.996349867
O   4.182150594   6.171287484   -3.995631459
Ba   -7.976866613   0.08808302191   -1.912772488
Ba   0.08840586927   -7.977211144   -1.912758528
Ba   0.08888974935   -7.986600123   -6.099946647
Ba   -7.988840573   0.09296561507   -6.104522848
O   -1.895349713   -7.900796448   -4.004038447
O   -7.902070396   -1.895337429   -4.005284755
Ba   8.142014099   0.09296561507   -6.104522848
Ba   0.08888974935   8.144254549   -6.099946647
Ba   0.08840586927   8.153643528   -1.912758528
Ba   8.153988059   0.08808302191   -1.912772488
O   2.135454933   -7.895906748   -4.001059572
O   -7.89636932   2.135784517   -3.995650926
O   8.023928862   2.035140372   -8.076740244
O   -2.010838669   8.030975264   -8.066987733
O   -1.999750255   8.033755145   0.05095483696
O   8.033916296   -1.999921805   0.05100462001
O   8.032936545   -2.013493475   -8.069513414
O   2.033040624   8.033792794   0.05089224078
O   8.033990446   2.032721958   0.05095410744
O   2.031601429   8.034748022   -8.075085928
Ti   -5.872359873   -5.872587189   -0.07336639677
Ti   -5.881056954   -5.882892938   -7.936067119
O   -8.096938376   -1.999921805   0.05100462001
O   -1.999750255   -8.097099527   0.05095483696
O   -8.097918127   -2.013493475   -8.069513414
O   -2.010838669   -8.099879409   -8.066987733
O   2.031601429   -8.096106651   -8.075085928
O   -8.096864227   2.032721958   0.05095410744
O   2.033040624   -8.097061878   0.05089224078
O   -8.10692581   2.035140372   -8.076740244
O   -5.967533419   -5.967685344   -1.976682867
O   -5.970546352   -5.970468033   -6.032439861
O   8.228784277   -1.895337429   -4.005284755
O   -1.895349713   8.230058224   -4.004038447
O   8.234485353   2.135784517   -3.995650926
O   2.135454933   8.234947925   -4.001059572
Ti   6.025908685   6.027593088   -4.006159849
Ti   6.035116808   -6.057819005   -4.003526944
Ti   -6.058705554   6.034218804   -4.003777698
O   -5.967067472   6.130895561   -1.976674553
O   6.13100761   -5.967398061   -1.976790874
O   6.130277313   -5.971667265   -6.028190538
Ti   -5.872212469   6.225670067   -0.073015047
Ti   6.22583392   -5.87262429   -0.07346114982
Ti   -5.882355693   6.219074643   -7.928451263
O   -5.971499982   6.134214705   -6.024699502
Ti   6.220723888   -5.885294777   -7.931404468
Ti   -6.059110483   -6.059020323   -4.006188233
O   6.131100056   6.130933065   -1.976829774
O   6.130356916   6.136619163   -6.014232235
Ti   6.217579038   6.220086666   -7.917013751
Ti   6.225838255   6.225633796   -0.07352052628
Ba   -7.977050739   -3.94465305   -1.912443001
Ba   -3.944436015   -7.977339638   -1.912659225
Ba   -7.984367461   -3.947337325   -6.09432988
Ba   -3.946546261   -7.985349213   -6.093822235
Ba   -7.976914981   4.120838273   -1.912594824
Ba   4.120924936   -7.977260424   -1.912613088
Ba   4.111918605   -7.984727284   -6.084543782
Ba   -7.988378587   4.112972075   -6.08343681
Ba   -3.946546261   8.14550546   -6.093822235
Ba   8.146487211   -3.947337325   -6.09432988
Ba   -3.944436015   8.153515034   -1.912659225
Ba   8.153803934   -3.94465305   -1.912443001
Ba   8.142476085   4.112972075   -6.08343681
Ba   4.111918605   8.146127388   -6.084543782
Ba   4.120924936   8.153594249   -1.912613088
Ba   8.153939691   4.120838273   -1.912594824
O   -5.92650899   -7.905551489   -3.999283148
O   -7.906407459   -5.926088566   -4.000392485
O   0.1497722644   -9.95023737   -3.999932731
O   -9.952924915   0.1468830262   -4.000790782
O   6.168780414   -7.904995958   -3.995472817
O   -7.906678224   6.168908459   -3.995440013
O   -6.032410963   8.033715858   0.05108670428
O   8.033953877   -6.03283893   0.05095368482
O   8.032921702   -6.042057647   -8.063094244
O   -6.042337674   8.033381886   -8.062760657
O   -0.03649866907   -10.0557895   -8.04793836
O   -10.05814734   -0.04282387117   -8.054170289
O   -10.06523195   -0.03146640457   0.05077003867
O   -0.03132656458   -10.06540263   0.05093413059
O   6.065428588   8.033764073   0.05079003367
O   8.033958712   6.065493499   0.05089912906
O   6.0662183   8.034107928   -8.049875744
O   8.028932539   6.074365407   -8.04543519
Ti   -9.905047743   -1.839698496   -0.0733873072
Ti   -1.839595386   -9.905280217   -0.07341340652
Ti   -9.915268741   -1.844721038   -7.933688058
Ti   -1.840789096   -9.916064422   -7.931728417
O   10.08846733   -0.03697189996   -8.06850908
O   -0.03739620636   10.09153275   -8.067145566
O   -6.032410963   -8.097138814   0.05108670428
O   -8.096900795   -6.03283893   0.05095368482
O   -0.03118296287   10.09822681   0.05089136568
O   10.09838937   -0.03167437162   0.05092867796
O   -6.042337674   -8.097472787   -8.062760657
O   -8.097932971   -6.042057647   -8.063094244
O   -8.09689596   6.065493499   0.05089912906
O   6.065428588   -8.097090599   0.05079003367
O   6.0662183   -8.096746744   -8.049875744
O   -8.101922133   6.074365407   -8.04543519
O   8.224447214   -5.926088566   -4.000392485
O   -5.92650899   8.225303184   -3.999283148
Ti   -9.904968198   2.192912733   -0.07312189576
Ti   2.193138042   -9.905239301   -0.07327184012
Ti   2.204627059   -9.916943475   -7.9381194
Ti   -9.938673736   2.211919532   -7.930778162
O   -1.941539329   -9.997984777   -6.030271636
O   -9.999650645   -1.934496689   -1.976708956
O   -1.934481845   -10.00010093   -1.976716604
O   -10.00059361   -1.944020979   -6.032848416
O   -9.984171674   2.095970868   -6.021190138
O   2.09226847   -9.994522823   -6.0341167
O   10.21031746   0.1517351268   -4.006834531
O   0.1524219548   10.2117299   -4.005030287
O   -9.999530148   2.098227352   -1.976906163
O   2.098383706   -10.00002431   -1.976694462
Ti   10.06971021   -2.025820329   -4.010528782
Ti   -2.027442853   10.07138616   -4.009321325
Ti   10.08226146   2.000476827   -4.005969586
Ti   2.00048639   10.08350423   -4.005249902
O   8.224176449   6.168908459   -3.995440013
O   6.168780414   8.225858715   -3.995472817
Ti   1.998077037   -10.10086735   -4.00482613
Ti   -10.10191072   1.996330431   -4.007701739
Ti   -10.10324283   -2.020275391   -4.011846139
Ti   -2.02119987   -10.10344381   -4.011604809
O   10.15982326   -1.941397339   -6.040214974
O   -1.941319174   10.16078495   -6.038431405
O   -1.934473609   10.16329448   -1.976713601
O   10.16370237   -1.934837206   -1.976667152
O   10.15401927   2.09478496   -6.042844255
O   2.092913736   10.16000173   -6.042157809
O   10.16372881   2.097762545   -1.976773379
O   2.098590041   10.16374022   -1.976757606
Ti   10.24627414   -1.843210334   -7.942727285
Ti   -1.845168078   10.2477865   -7.94116759
Ti   -1.83939566   10.25816252   -0.07296133287
Ti   10.25861431   -1.839766631   -0.07288608243
Ti   10.23017542   2.20226197   -7.945480213
Ti   2.193337141   10.2389891   -7.942627846
Ti   10.25864054   2.192815963   -0.07305665936
Ti   2.193205433   10.25854674   -0.07295293837
O   -9.957031962   -3.875975426   -4.000493913
O   -3.875576625   -9.957741939   -3.999580593
O   4.182150594   -9.959567188   -3.995631459
O   -9.965901581   4.185529947   -3.996349867
O   4.017704826   -10.04397755   -8.032701283
O   -10.04941499   4.02855087   -8.024277897
O   -10.06526819   4.001039296   0.05085167571
O   4.001296257   -10.06529552   0.05111500869
O   10.08113952   4.021078187   -8.050944125
O   4.005607396   10.08793127   -8.060752292
O   -10.0650741   -4.064381093   0.05090767276
O   -4.064061565   -10.06551311   0.05090504827
O   -4.076759109   -10.06067053   -8.057132337
O   -10.06208428   -4.079169165   -8.063687872
O   10.09846142   4.000891472   0.05080133535
O   4.001274665   10.09840773   0.0511608925
O   -4.071843117   10.09143258   -8.068832219
O   10.0926739   -4.073980963   -8.070809578
O   -4.064173517   10.0979347   0.05069448698
O   10.0984954   -4.064326199   0.05097876225
O   10.20666408   -3.876140462   -4.003830302
O   -3.877075427   10.20743622   -4.003063185
O   10.20562329   4.189671577   -4.001131044
O   4.189673021   10.20642118   -4.001598565
Ba   -7.97697596   -7.977336703   -1.912734125
Ba   -7.983274575   -7.983646981   -6.083896918
Ba   -7.983274575   8.147207691   -6.083896918
Ba   -7.97697596   8.15351797   -1.912734125
Ba   8.147580097   -7.983646981   -6.083896918
Ba   8.153878712   -7.977336703   -1.912734125
Ti   -5.872212469   -9.905184606   -0.073015047
Ti   -9.905020752   -5.87262429   -0.07346114982
Ba   8.147580097   8.147207691   -6.083896918
Ti   -5.882355693   -9.91178003   -7.928451263
Ti   -9.910130784   -5.885294777   -7.931404468
Ba   8.153878712   8.15351797   -1.912734125
O   -5.971499982   -9.996639967   -6.024699502
O   -5.967067472   -9.999959111   -1.976674553
O   -9.999847062   -5.967398061   -1.976790874
O   -10.00057736   -5.971667265   -6.028190538
Ti   -9.905016417   6.225633796   -0.07352052628
Ti   6.225838255   -9.905220876   -0.07352052628
Ti   6.217579038   -9.910768006   -7.917013751
Ti   -9.913275635   6.220086666   -7.917013751
O   6.130356916   -9.994235509   -6.014232235
O   -9.999754616   6.130933065   -1.976829774
O   6.131100056   -9.999921607   -1.976829774
O   -10.00049776   6.136619163   -6.014232235
Ti   10.07214912   6.034218804   -4.003777698
Ti   6.035116808   10.07303567   -4.003526944
Ti   10.07174419   -6.059020323   -4.006188233
Ti   -6.059110483   10.07183435   -4.006188233
Ti   6.025908685   -10.10326158   -4.006159849
Ti   -10.10494599   6.027593088   -4.006159849
Ti   -10.09573786   -6.057819005   -4.003526944
Ti   -6.058705554   -10.09663587   -4.003777698
O   10.16030832   -5.970468033   -6.032439861
O   -5.970546352   10.16038664   -6.032439861
O   -5.967533419   10.16316933   -1.976682867
O   10.16332125   -5.967685344   -1.976682867
Ti   -5.881056954   10.24796173   -7.936067119
Ti   10.24979772   -5.882892938   -7.936067119
Ti   -5.872359873   10.25826748   -0.07336639677
Ti   10.2584948   -5.872587189   -0.07336639677
O   6.130277313   10.15918741   -6.028190538
O   10.15935469   6.134214705   -6.024699502
O   6.13100761   10.16345661   -1.976790874
O   10.1637872   6.130895561   -1.976674553
Ti   6.220723888   10.2455599   -7.931404468
Ti   10.24849898   6.219074643   -7.928451263
Ti   6.22583392   10.25823038   -0.07346114982
Ti   10.2586422   6.225670067   -0.073015047
Ba   -12.00976976   0.08798741837   -1.91266426
Ba   0.08832592919   -12.01014824   -1.912325512
Ba   0.1182874763   -12.04691626   -6.129263394
Ba   -12.05071708   0.1151443639   -6.134296046
O   -1.89506957   -11.93900405   -4.009642266
O   -11.93933138   -1.898269005   -4.00812277
O   2.122353101   -11.93331073   -3.99086872
O   -11.93560432   2.121720301   -3.989821521
Ba   12.18320531   0.09427565904   -6.112266518
Ba   0.08824495674   12.18628917   -1.912482874
Ba   0.08759509219   12.18639517   -6.107704134
Ba   12.18647538   0.08795316652   -1.912658867
O   12.03635719   2.040626789   -8.084794336
O   2.031997272   12.04885315   -8.08631242
O   -12.04600287   2.065309004   -8.026455678
O   -2.007667151   12.05730328   -8.076452109
O   12.05799341   -2.004234404   -8.078015817
O   -1.999797891   12.06624271   0.0510128782
O   12.0667857   -2.000043724   0.05091994431
O   12.06677775   2.032597081   0.05080885192
O   2.032933524   12.06670182   0.05086660562
O   2.068474061   -12.06354596   -8.090409885
O   -2.018293882   -12.10681968   -8.054084005
O   -12.10828681   -2.026577973   -8.070010538
O   -12.12971971   -1.999830656   0.05085668958
O   -1.999789654   -12.12992368   0.05093195373
O   -12.12935349   2.03264198   0.05077475129
O   2.03330142   -12.12996343   0.05090340252
O   12.25678469   -1.89483165   -4.010754875
O   -1.895872577   12.25802704   -4.010370617
O   12.25446939   2.138636918   -3.99986944
O   2.14012137   12.25544964   -4.003381294
Ba   -12.00965698   -3.944577322   -1.912669097
Ba   -3.944402923   -12.01013541   -1.912506662
Ba   -12.01759603   -3.950121869   -6.09177546
Ba   -3.948970969   -12.0207006   -6.092535152
Ba   -12.00973845   4.120859118   -1.912346939
Ba   4.12111622   -12.00999555   -1.912346939
O   -9.962074258   -7.904995958   -3.995472817
O   -7.906678224   -9.961946214   -3.995440013
Ba   4.071968077   -12.05360221   -6.112025427
Ba   -12.0588866   4.077252464   -6.112025427
Ba   12.18384257   -3.945353913   -6.103883431
Ba   -3.94435161   12.18607009   -1.912324892
Ba   -3.947012102   12.18550076   -6.103883431
Ba   12.18650306   -3.944784583   -1.912324892
Ba   4.113258646   12.1807328   -6.09177546
Ba   12.1818837   4.110154072   -6.092535152
Ba   12.18645175   4.12071926   -1.912506662
Ba   4.121197697   12.18627735   -1.912669097
O   8.028932539   -10.05648927   -8.04543519
O   -10.06463637   8.034107928   -8.049875744
O   -10.06542608   8.033764073   0.05079003367
O   8.033958712   -10.06536117   0.05089912906
O   8.032921702   10.08879703   -8.063094244
O   10.088517   8.033381886   -8.062760657
O   8.033953877   10.09801574   0.05095368482
O   10.09844371   8.033715858   0.05108670428
O   10.20434568   -7.905551489   -3.999283148
O   -7.906407459   10.20476611   -4.000392485
O   -8.101922133   -10.05648927   -8.04543519
O   -10.06463637   -8.096746744   -8.049875744
O   -8.09689596   -10.06536117   0.05089912906
O   8.224176449   -9.961946214   -3.995440013
O   -10.06542608   -8.097090599   0.05079003367
O   -9.962074258   8.225858715   -3.995472817
O   10.088517   -8.097472787   -8.062760657
O   -8.097932971   10.08879703   -8.063094244
O   -8.096900795   10.09801574   0.05095368482
O   10.09844371   -8.097138814   0.05108670428
O   8.224447214   10.20476611   -4.000392485
O   10.20434568   8.225303184   -3.999283148
O   -11.94118165   -5.92443349   -4.001598565
O   -5.925231384   -11.9411831   -4.001131044
O   6.164953091   -11.94532473   -3.996349867
O   -11.94870408   6.171287484   -3.995631459
O   -6.038180773   12.05687371   -8.070809578
O   12.05901155   -6.039422095   -8.068832219
O   -6.032359271   12.06652847   0.05097876225
O   12.06668116   -6.032919968   0.05069448698
O   6.06877039   12.05168551   -8.063687872
O   12.05409556   6.070184144   -8.057132337
O   6.065780567   12.06647358   0.05090767276
O   12.06679311   6.065341558   0.05090504827
O   -6.049715155   -12.10977649   -8.050944125
O   6.081439682   -12.1023038   -8.024277897
O   -12.12958001   -6.032446939   0.0511608925
O   -6.032393251   -12.1299632   0.05080133535
O   -12.12524728   -6.042923398   -8.060752292
O   -12.11314985   6.086877126   -8.032701283
O   -12.12955842   6.065559155   0.05111500869
O   6.065586481   -12.12981538   0.05085167571
O   12.25377925   -5.923418453   -4.003063185
O   -5.924190588   12.25471421   -4.003830302
O   6.173822711   12.25487925   -4.000493913
O   12.25527805   6.173112733   -3.999580593
O   -14.0034486   0.1084242599   -4.010574625
O   0.1089114069   -14.00385482   -4.010453083
Ti   -9.905016417   -9.905220876   -0.07352052628
Ti   -9.913275635   -9.910768006   -7.917013751
H   -13.99818036   1.035530956   -10.3777203
Ti   -1.84645869   -13.92561118   -7.950643325
Ti   -13.92720315   -1.86638801   -7.95393242
Ti   2.245256366   -13.87366541   -8.342568465
Ti   -13.93781565   -1.83966211   -0.07309098259
Ti   -1.839479792   -13.93806762   -0.07296256083
O   -0.05453162977   -14.06332338   -8.020020866
Ti   -13.88559831   2.257189267   -8.342568465
O   -14.06849534   -0.07113614803   -8.081746024
O   -14.09776528   -0.03144643458   0.05063186943
O   -0.03131342358   -14.09805237   0.05087843882
Ti   -13.93755061   2.192644406   -0.07352053233
Ti   2.193304065   -13.93821027   -0.07352053233
O   -0.03736390997   14.12261395   -8.083093586
O   14.12753485   -0.02948866622   -8.079893213
O   14.13106108   -0.03155143555   0.05072130009
O   -0.03143321252   14.13110434   0.05100466477
O   -10.00049776   -9.994235509   -6.014232235
O   -9.999754616   -9.999921607   -1.976829774
O   -14.03274228   -1.934667889   -1.976818386
O   -1.93437893   -14.0329746   -1.976785025
O   -14.0349593   -1.958946779   -6.053358708
O   -1.96658903   -14.0379897   -6.045825319
O   -14.03056183   2.097966291   -5.945478961
O   -14.03231713   2.098042025   -1.976899511
O   2.098537545   -14.03281265   -1.976899511
O   2.100292845   -14.03288838   -5.945478961
O   -14.06455091   1.981381625   -10.1421258
O   0.1496124201   14.22946344   -4.015258875
O   14.23149073   0.14563966   -4.014239818
Ti   10.07174419   10.07183435   -4.006188233
Ti   14.10433154   -2.022893675   -4.016203148
Ti   -2.026523132   14.107961   -4.016203148
O   10.15935469   -9.996639967   -6.024699502
Ti   -9.910130784   10.2455599   -7.931404468
O   -10.00057736   10.15918741   -6.028190538
Ti   10.24849898   -9.91178003   -7.928451263
O   -9.999847062   10.16345661   -1.976790874
O   10.1637872   -9.999959111   -1.976674553
Ti   -9.905020752   10.25823038   -0.07346114982
Ti   10.2586422   -9.905184606   -0.073015047
Ti   10.07214912   -10.09663587   -4.003777698
Ti   -10.09573786   10.07303567   -4.003526944
Ti   14.12780013   1.993012012   -4.016512403
Ti   1.99469445   14.12765545   -4.012425139
Ti   -14.13616022   -2.003199223   -4.012425139
Ti   -2.003054541   -14.13784266   -4.016512403
Ti   -14.14100465   1.987190883   -4.09452869
Ti   1.989850023   -14.14366379   -4.09452869
Ti   -10.10494599   -10.10326158   -4.006159849
O   2.066303767   -14.14947305   -10.1421258
O   14.16426564   2.092864976   -6.045825319
O   14.19062249   -1.938381906   -6.051322022
O   -1.940232185   14.19247277   -6.051322022
O   2.095895375   14.17190789   -6.053358708
O   -1.934543274   14.19598512   -1.976631404
O   14.1963114   -1.934869549   -1.976631404
O   2.098112392   14.19618678   -1.976818386
O   14.19647574   2.097880077   -1.976785025
O   10.16030832   10.16038664   -6.032439861
O   10.16332125   10.16316933   -1.976682867
Ti   14.28645445   -1.839160469   -7.9516591
Ti   -1.839682735   14.29110729   -0.07327648984
Ti   14.29117194   -1.839747383   -0.07327648984
Ti   -1.844400225   14.2916942   -7.9516591
Ba   -7.976914981   -12.0100164   -1.912594824
Ba   -12.00992974   -7.977260424   -1.912613088
Ba   -12.01893607   -7.984727284   -6.084543782
Ba   -7.988378587   -12.0178826   -6.08343681
Ti   2.203651524   14.26446666   -7.95393242
Ti   14.28439598   2.205243489   -7.950643325
Ti   2.193039018   14.29119256   -0.07309098259
Ti   14.29137488   2.19278705   -0.07296256083
Ti   10.24979772   10.24796173   -7.936067119
Ti   10.2584948   10.25826748   -0.07336639677
Ba   -12.00992974   8.153594249   -1.912613088
Ba   8.153939691   -12.0100164   -1.912594824
Ba   8.142476085   -12.0178826   -6.08343681
O   -13.9907333   -3.875405033   -4.003381294
O   -3.87638528   -13.99221775   -3.99986944
Ba   -12.01893607   8.146127388   -6.084543782
Ba   -7.977050739   12.18620162   -1.912443001
Ba   12.18641866   -7.977339638   -1.912659225
Ba   -7.984367461   12.18351735   -6.09432988
Ba   12.18430841   -7.985349213   -6.093822235
O   4.19525035   -14.00913437   -3.989821521
O   -14.00850157   4.197543938   -3.99086872
O   -14.06238061   4.067308716   -8.090409885
O   4.084851803   -14.06554567   -8.026455678
O   -14.09755325   4.000891242   0.05090340252
O   4.001501184   -14.09821269   0.05077475129
Ba   8.146487211   12.18351735   -6.09432988
Ba   12.18430841   8.14550546   -6.093822235
Ba   8.153803934   12.18620162   -1.912443001
Ba   12.18641866   8.153515034   -1.912659225
O   4.022567859   14.1042767   -8.070010538
O   -14.09792115   -4.064152849   0.05086660562
O   -4.064076925   -14.09825759   0.05080885192
O   -4.094497483   -14.09022788   -8.084794336
O   14.11256079   4.024034988   -8.054084005
O   -14.0988574   -4.082001527   -8.08631242
O   14.13106502   4.000930994   0.05093195373
O   4.001134958   14.13102402   0.05085668958
O   14.12318752   -4.073551393   -8.076452109
O   -4.072861257   14.12662027   -8.078015817
O   -4.064068977   14.13081095   0.05091994431
O   14.13105678   -4.064611965   0.0510128782
O   14.2349821   -3.872827635   -4.010370617
O   -3.87406998   14.23602302   -4.010754875
O   4.191523289   14.23258567   -4.00812277
O   14.2357851   4.191850625   -4.009642266
Ti   -13.93764924   -5.872307935   -0.07295293837
Ti   -5.87221413   -13.93803871   -0.07305665936
Ti   -5.900679255   -13.9285927   -7.945480213
Ti   -13.93751753   -5.891865573   -7.942627846
Ti   6.192180936   -13.91893514   -7.930778162
H   2.132674313   -15.09532372   -10.3777203
O   -14.03226463   -5.967114457   -1.976757606
O   -5.967125861   -14.03309213   -1.976773379
Ti   -13.92622761   6.213911198   -7.9381194
O   -14.03794094   -5.970852941   -6.042157809
O   -5.976835398   -14.03606971   -6.042844255
Ti   -13.93771663   6.225615371   -0.07327184012
Ti   6.225886474   -13.93794194   -0.07312189576
O   -14.03247097   6.130830364   -1.976694462
O   6.131324525   -14.03262732   -1.976906163
O   -14.0385862   6.13633185   -6.0341167
O   6.146682998   -14.0348838   -6.021190138
Ti   14.1096548   6.027410867   -4.011604809
Ti   6.027611845   14.11057928   -4.011846139
Ti   14.10341182   -6.059468513   -4.009321325
Ti   -6.061144463   14.10503434   -4.010528782
Ti   -14.13277764   6.029987327   -4.00482613
Ti   6.028943948   -14.13452424   -4.007701739
Ti   -14.13036828   -6.047350446   -4.005249902
Ti   -6.048593208   -14.13037785   -4.005969586
O   14.1895355   -5.970069725   -6.038431405
O   -5.971031415   14.18945733   -6.040214974
O   -5.9671523   14.19601747   -1.976667152
O   14.19638106   -5.967560197   -1.976713601
Ti   14.28568659   -5.883068171   -7.94116759
Ti   -5.872240359   14.29108804   -0.07288608243
Ti   14.29145901   -5.872692156   -0.07296133287
Ti   -5.884580532   14.28764434   -7.942727285
O   6.130261067   14.18683369   -6.032848416
O   14.18931534   6.132869896   -6.030271636
O   14.19637283   6.130753739   -1.976716604
O   6.131204027   14.19635798   -1.976708956
O   -11.94870408   -9.959567188   -3.995631459
O   -9.965901581   -11.94532473   -3.996349867
Ti   6.215585931   14.28613363   -7.933688058
Ti   14.29006558   6.214790251   -7.931728417
Ti   14.29125929   6.225574455   -0.07341340652
Ti   6.225806929   14.29115618   -0.0733873072
O   -10.06208428   12.05168551   -8.063687872
O   12.05409556   -10.06067053   -8.057132337
O   10.20562329   -11.9411831   -4.001131044
O   -11.94118165   10.20642118   -4.001598565
O   -10.0650741   12.06647358   0.05090767276
O   12.06679311   -10.06551311   0.05090504827
O   10.0926739   12.05687371   -8.070809578
O   12.05901155   10.09143258   -8.068832219
O   -10.04941499   -12.1023038   -8.024277897
O   12.06668116   10.0979347   0.05069448698
O   10.0984954   12.06652847   0.05097876225
O   -12.11314985   -10.04397755   -8.032701283
O   10.08113952   -12.10977649   -8.050944125
O   -12.12955842   -10.06529552   0.05111500869
O   -10.06526819   -12.12981538   0.05085167571
O   -12.12524728   10.08793127   -8.060752292
O   -12.12958001   10.09840773   0.0511608925
O   10.09846142   -12.1299632   0.05080133535
O   -9.957031962   12.25487925   -4.000493913
O   12.25527805   -9.957741939   -3.999580593
O   12.25377925   10.20743622   -4.003063185
O   10.20666408   12.25471421   -4.003830302
Ba   -16.01538716   0.1100810423   -6.154715545
Ba   0.1154675097   -16.02077363   -6.154715545
Ba   -16.04257583   0.08807900412   -1.912669086
Ba   0.08827884323   -16.04277567   -1.912669086
O   -7.89636932   -13.99507016   -3.995650926
O   -13.99539974   -7.895906748   -4.001059572
O   -15.98124225   -1.901391233   -4.015258875
O   -1.899363942   -15.98521501   -4.014239818
O   -16.02194327   2.126999849   -4.010453083
O   2.127406074   -16.02243041   -4.010574625
O   2.062359336   16.05971852   -8.081746024
O   16.07632304   2.067531292   -8.020020866
O   16.09349076   -2.008240722   -8.083093586
O   8.023928862   -14.0957143   -8.076740244
O   -1.99979359   16.09930324   0.05072130009
O   16.09942146   -1.999750331   0.05100466477
O   -2.003319818   16.10136601   -8.079893213
O   -14.09781405   8.033792794   0.05089224078
O   8.033990446   -14.09813271   0.05095410744
O   2.033089389   16.09940824   0.05063186943
O   16.09954125   2.0328023   0.05087843882
O   -14.09925324   8.034748022   -8.075085928
O   8.234485353   -13.99507016   -3.995650926
O   -13.99539974   8.234947925   -4.001059572
O   8.032936545   14.1173612   -8.069513414
O   14.120016   8.030975264   -8.066987733
O   8.033916296   14.13093287   0.05100462001
O   14.13110442   8.033755145   0.05095483696
O   -14.09781405   -8.097061878   0.05089224078
O   -8.096864227   -14.09813271   0.05095410744
O   -14.09925324   -8.096106651   -8.075085928
O   -8.10692581   -14.0957143   -8.076740244
O   -8.097918127   14.1173612   -8.069513414
O   14.120016   -8.099879409   -8.066987733
O   14.23550496   -7.900796448   -4.004038447
O   -7.902070396   14.23551724   -4.005284755
O   -8.096938376   14.13093287   0.05100462001
O   14.13110442   -8.097099527   0.05095483696
O   8.228784277   14.23551724   -4.005284755
O   14.23550496   8.230058224   -4.004038447
Ba   -3.947649362   -16.03657901   -6.112266518
Ba   -16.04260972   -3.944565506   -1.912482874
Ba   -3.944379296   -16.04290151   -1.912658867
Ba   -16.04325958   -3.944459504   -6.107704134
Ba   -16.0125672   4.08393841   -6.129263394
Ba   4.080137588   -16.01571031   -6.134296046
Ba   -16.04252874   4.120706436   -1.912325512
Ba   4.12108491   -16.04286725   -1.91266426
Ba   -12.00973845   -12.00999555   -1.912346939
O   -15.97843272   -5.919124773   -4.005030287
O   -5.920537209   -15.97911955   -4.006834531
Ba   -12.0588866   -12.05360221   -6.112025427
Ti   -13.92622761   -9.916943475   -7.9381194
Ti   -13.93771663   -9.905239301   -0.07327184012
Ti   -9.904968198   -13.93794194   -0.07312189576
Ti   -9.938673736   -13.91893514   -7.930778162
Ba   -12.00965698   12.18627735   -1.912669097
Ba   12.18645175   -12.01013541   -1.912506662
Ba   -12.01759603   12.1807328   -6.09177546
Ba   12.1818837   -12.0207006   -6.092535152
O   -15.98108241   6.180617302   -3.999932731
O   6.177929757   -15.98397165   -4.000790782
O   16.09345847   -6.039321922   -8.067145566
O   -6.042387346   16.09388277   -8.06850908
O   -6.032465304   16.0991803   0.05092867796
O   16.09967171   -6.032627866   0.05089136568
O   6.072707329   16.0880308   -8.054170289
O   16.094356   6.075065168   -8.04793836
O   6.065622723   16.09938827   0.05077003867
O   16.09952811   6.065452046   0.05093413059
O   -9.984171674   -14.0348838   -6.021190138
O   -9.999530148   -14.03262732   -1.976906163
O   -14.03247097   -10.00002431   -1.976694462
Ba   12.18384257   12.18550076   -6.103883431
O   -14.0385862   -9.994522823   -6.0341167
Ba   12.18650306   12.18607009   -1.912324892
Ti   10.23017542   -13.9285927   -7.945480213
Ti   -13.93751753   10.2389891   -7.942627846
Ti   -13.93764924   10.25854674   -0.07295293837
Ti   10.25864054   -13.93803871   -0.07305665936
O   10.15401927   -14.03606971   -6.042844255
O   -14.03226463   10.16374022   -1.976757606
O   10.16372881   -14.03309213   -1.976773379
O   -14.03794094   10.16000173   -6.042157809
Ti   14.10341182   10.07138616   -4.009321325
Ti   10.06971021   14.10503434   -4.010528782
Ti   14.1096548   -10.10344381   -4.011604809
Ti   -10.10324283   14.11057928   -4.011846139
O   -10.00059361   14.18683369   -6.032848416
O   14.18931534   -9.997984777   -6.030271636
Ti   10.08226146   -14.13037785   -4.005969586
Ti   -14.13036828   10.08350423   -4.005249902
O   -9.999650645   14.19635798   -1.976708956
O   14.19637283   -10.00010093   -1.976716604
Ti   -14.13277764   -10.10086735   -4.00482613
Ti   -10.10191072   -14.13452424   -4.007701739
Ti   -9.905047743   14.29115618   -0.0733873072
Ti   14.29125929   -9.905280217   -0.07341340652
Ti   -9.915268741   14.28613363   -7.933688058
Ti   14.29006558   -9.916064422   -7.931728417
O   10.15982326   14.18945733   -6.040214974
O   14.1895355   10.16078495   -6.038431405
O   10.16370237   14.19601747   -1.976667152
O   14.19638106   10.16329448   -1.976713601
Ti   14.28568659   10.2477865   -7.94116759
Ti   10.24627414   14.28764434   -7.942727285
Ti   10.25861431   14.29108804   -0.07288608243
Ti   14.29145901   10.25816252   -0.07296133287
Ba   -16.0424488   -7.977211144   -1.912758528
Ba   -7.976866613   -16.04277165   -1.912772488
Ba   -7.988840573   -16.03788906   -6.104522848
Ba   -16.04196492   -7.986600123   -6.099946647
Ba   8.142014099   -16.03788906   -6.104522848
Ba   -16.04196492   8.144254549   -6.099946647
Ba   -16.0424488   8.153643528   -1.912758528
Ba   8.153988059   -16.04277165   -1.912772488
O   -14.00850157   -11.93331073   -3.99086872
O   -11.93560432   -14.00913437   -3.989821521
O   -12.04600287   -14.06554567   -8.026455678
O   -14.06238061   -12.06354596   -8.090409885
O   12.03635719   -14.09022788   -8.084794336
O   -14.0988574   12.04885315   -8.08631242
O   -14.09792115   12.06670182   0.05086660562
O   12.06677775   -14.09825759   0.05080885192
O   14.12318752   12.05730328   -8.076452109
O   12.05799341   14.12662027   -8.078015817
O   -11.93933138   14.23258567   -4.00812277
O   14.2357851   -11.93900405   -4.009642266
O   14.13105678   12.06624271   0.0510128782
O   12.0667857   14.13081095   0.05091994431
O   -12.10828681   14.1042767   -8.070010538
O   14.11256079   -12.10681968   -8.054084005
O   -14.09755325   -12.12996343   0.05090340252
O   -12.12935349   -14.09821269   0.05077475129
O   -13.9907333   12.25544964   -4.003381294
O   12.25446939   -13.99221775   -3.99986944
O   -12.12971971   14.13102402   0.05085668958
O   14.13106502   -12.12992368   0.05093195373
O   12.25678469   14.23602302   -4.010754875
O   14.2349821   12.25802704   -4.010370617
O   -15.98108241   -9.95023737   -3.999932731
O   -9.952924915   -15.98397165   -4.000790782
O   10.21031746   -15.97911955   -4.006834531
O   -15.97843272   10.2117299   -4.005030287
O   -10.05814734   16.0880308   -8.054170289
O   16.094356   -10.0557895   -8.04793836
O   -10.06523195   16.09938827   0.05077003867
O   16.09952811   -10.06540263   0.05093413059
O   10.08846733   16.09388277   -8.06850908
O   16.09345847   10.09153275   -8.067145566
O   10.09838937   16.0991803   0.05092867796
O   16.09967171   10.09822681   0.05089136568
Ti   -13.88559831   -13.87366541   -8.342568465
Ti   -13.93755061   -13.93821027   -0.07352053233
O   -14.03056183   -14.03288838   -5.945478961
O   -14.03231713   -14.03281265   -1.976899511
Ti   -13.92720315   14.26446666   -7.95393242
O   14.16426564   -14.0379897   -6.045825319
O   -14.0349593   14.17190789   -6.053358708
Ti   14.10433154   14.107961   -4.016203148
Ti   14.28439598   -13.92561118   -7.950643325
O   -14.06455091   -14.14947305   -10.1421258
O   -14.03274228   14.19618678   -1.976818386
O   14.19647574   -14.0329746   -1.976785025
Ti   -13.93781565   14.29119256   -0.07309098259
Ti   14.29137488   -13.93806762   -0.07296256083
Ti   -14.13616022   14.12765545   -4.012425139
Ti   14.12780013   -14.13784266   -4.016512403
Ti   -14.14100465   -14.14366379   -4.09452869
Ba   -16.0125672   -12.04691626   -6.129263394
Ba   -16.04252874   -12.01014824   -1.912325512
Ba   -12.00976976   -16.04286725   -1.91266426
Ba   -12.05071708   -16.01571031   -6.134296046
O   14.19062249   14.19247277   -6.051322022
O   14.1963114   14.19598512   -1.976631404
Ba   12.18320531   -16.03657901   -6.112266518
Ba   -16.04260972   12.18628917   -1.912482874
Ba   12.18647538   -16.04290151   -1.912658867
Ba   -16.04325958   12.18639517   -6.107704134
Ti   14.28645445   14.2916942   -7.9516591
Ti   14.29117194   14.29110729   -0.07327648984
H   -13.99818036   -15.09532372   -10.3777203
O   -16.02194327   -14.00385482   -4.010453083
O   -14.0034486   -16.02243041   -4.010574625
O   -14.06849534   16.05971852   -8.081746024
O   16.07632304   -14.06332338   -8.020020866
O   -15.98124225   14.22946344   -4.015258875
O   -14.09776528   16.09940824   0.05063186943
O   16.09954125   -14.09805237   0.05087843882
O   14.23149073   -15.98521501   -4.014239818
O   16.09349076   14.12261395   -8.083093586
O   14.12753485   16.10136601   -8.079893213
O   14.13106108   16.09930324   0.05072130009
O   16.09942146   14.13110434   0.05100466477
Ba   -16.01538716   -16.02077363   -6.154715545
Ba   -16.04257583   -16.04277567   -1.912669086
