300
TryAgain (Dissociation)
O   -5.919328465   -7.916722424   -3.995447451
O   10.21152621   -7.916722424   -3.995447451
O   -9.959714794   -7.913513263   -3.997086853
O   6.171139878   -7.913513263   -3.997086853
O   -1.887000713   -7.903949091   -4.016228855
O   14.24385396   -7.903949091   -4.016228855
O   -14.00000021   -7.897561361   -4.0180818
O   2.130854461   -7.897561361   -4.0180818
Ti   -6.055232813   -6.068152481   -4.004978813
Ti   10.07562186   -6.068152481   -4.004978813
Ti   -2.014683757   -6.060541788   -4.020726448
Ti   14.11617092   -6.060541788   -4.020726448
Ti   -10.10676912   -6.059117903   -4.012568028
Ti   6.024085554   -6.059117903   -4.012568028
O   -8.074954256   -6.052628938   -8.048144257
O   8.055900416   -6.052628938   -8.048144257
O   -12.10744597   -6.047438673   -8.066236053
O   4.023408707   -6.047438673   -8.066236053
O   -4.046848584   -6.046518306   -8.060096832
O   12.08400609   -6.046518306   -8.060096832
O   -4.064173517   -6.032919968   0.05069448698
O   12.06668116   -6.032919968   0.05069448698
O   -8.096900795   -6.03283893   0.05095368482
O   8.033953877   -6.03283893   0.05095368482
O   -0.03118296287   -6.032627866   0.05089136568
O   16.09967171   -6.032627866   0.05089136568
O   -12.12958001   -6.032446939   0.0511608925
O   4.001274665   -6.032446939   0.0511608925
O   -0.02568640278   -6.026679827   -8.079007098
O   16.10516827   -6.026679827   -8.079007098
Ti   -14.14431234   -6.019574608   -4.021917266
Ti   1.986542331   -6.019574608   -4.021917266
O   -9.997055132   -5.983806252   -6.030325537
O   6.13379954   -5.983806252   -6.030325537
O   -5.958394972   -5.982067815   -6.027090731
O   10.1724597   -5.982067815   -6.027090731
O   -14.03910151   -5.969572475   -6.072727356
O   2.091753167   -5.969572475   -6.072727356
O   -5.967533419   -5.967685344   -1.976682867
O   10.16332125   -5.967685344   -1.976682867
O   -1.934473609   -5.967560197   -1.976713601
O   14.19638106   -5.967560197   -1.976713601
O   -9.999847062   -5.967398061   -1.976790874
O   6.13100761   -5.967398061   -1.976790874
O   -14.03226463   -5.967114457   -1.976757606
O   2.098590041   -5.967114457   -1.976757606
O   -1.931273164   -5.966130616   -6.051607633
O   14.19958151   -5.966130616   -6.051607633
O   -7.897658626   -5.93749239   -4.002469006
O   8.233196047   -5.93749239   -4.002469006
O   -3.870233709   -5.931487355   -4.007124861
O   12.26062096   -5.931487355   -4.007124861
O   -11.93887131   -5.928891241   -4.017997104
O   4.191983365   -5.928891241   -4.017997104
O   -15.99071741   -5.91393777   -4.036708877
O   0.1401372577   -5.91393777   -4.036708877
Ti   -5.865937587   -5.887350688   -7.933912568
Ti   10.26491709   -5.887350688   -7.933912568
Ti   -9.893884692   -5.882777606   -7.932004347
Ti   6.23696998   -5.882777606   -7.932004347
Ti   -1.83939566   -5.872692156   -0.07296133287
Ti   14.29145901   -5.872692156   -0.07296133287
Ti   -9.905020752   -5.87262429   -0.07346114982
Ti   6.22583392   -5.87262429   -0.07346114982
Ti   -5.872359873   -5.872587189   -0.07336639677
Ti   10.2584948   -5.872587189   -0.07336639677
Ti   -13.93764924   -5.872307935   -0.07295293837
Ti   2.193205433   -5.872307935   -0.07295293837
Ti   -13.91881905   -5.871581569   -7.977467854
Ti   2.212035625   -5.871581569   -7.977467854
Ti   -1.837726035   -5.868344016   -7.948716207
Ti   14.29312864   -5.868344016   -7.948716207
O   -5.999782311   -4.085008312   -8.05474039
O   10.13107236   -4.085008312   -8.05474039
O   -10.00901829   -4.081191635   -8.036216096
O   6.121836377   -4.081191635   -8.036216096
O   -1.999797891   -4.064611965   0.0510128782
O   14.13105678   -4.064611965   0.0510128782
O   -10.0650741   -4.064381093   0.05090767276
O   6.065780567   -4.064381093   0.05090767276
O   -6.032359271   -4.064326199   0.05097876225
O   10.0984954   -4.064326199   0.05097876225
O   -14.09792115   -4.064152849   0.05086660562
O   2.032933524   -4.064152849   0.05086660562
O   -14.04202779   -4.063530649   -8.102760776
O   2.088826886   -4.063530649   -8.102760776
O   -1.972362829   -4.051809061   -8.072568641
O   14.15849184   -4.051809061   -8.072568641
Ba   -7.989316952   -3.964509604   -6.081163997
Ba   8.14153772   -3.964509604   -6.081163997
Ba   -3.962312813   -3.959923505   -6.080312039
Ba   12.16854186   -3.959923505   -6.080312039
Ba   -3.94435161   -3.944784583   -1.912324892
Ba   12.18650306   -3.944784583   -1.912324892
Ba   -7.977050739   -3.94465305   -1.912443001
Ba   8.153803934   -3.94465305   -1.912443001
Ba   -12.00965698   -3.944577322   -1.912669097
Ba   4.121197697   -3.944577322   -1.912669097
Ba   -16.04260972   -3.944565506   -1.912482874
Ba   0.08824495674   -3.944565506   -1.912482874
O   -14.01090346   -3.938895687   -3.987269948
O   2.119951209   -3.938895687   -3.987269948
Ba   -12.05381664   -3.915193228   -6.131330042
Ba   4.077038035   -3.915193228   -6.131330042
O   -9.947826349   -3.88807156   -3.999675464
O   6.183028324   -3.88807156   -3.999675464
Ba   -16.00606599   -3.880445217   -6.213209587
Ba   0.1247886793   -3.880445217   -6.213209587
O   -5.921994791   -3.880190419   -3.997913005
O   10.20885988   -3.880190419   -3.997913005
O   -1.90604463   -3.877662375   -4.029999266
O   14.22481004   -3.877662375   -4.029999266
Ti   -14.15711811   -2.045296674   -4.076935947
Ti   1.973736561   -2.045296674   -4.076935947
Ti   -10.10237177   -2.039745812   -3.998188165
Ti   6.028482907   -2.039745812   -3.998188165
Ti   -1.999832762   -2.037664141   -4.00448263
Ti   14.13102191   -2.037664141   -4.00448263
Ti   -6.053794787   -2.032076218   -3.996049756
Ti   10.07705988   -2.032076218   -3.996049756
O   -3.995109562   -2.021867623   -8.082022409
O   12.13574511   -2.021867623   -8.082022409
O   -7.956159811   -2.018824569   -8.055797697
O   8.174694861   -2.018824569   -8.055797697
O   -4.064068977   -2.000043724   0.05091994431
O   12.0667857   -2.000043724   0.05091994431
O   -8.096938376   -1.999921805   0.05100462001
O   8.033916296   -1.999921805   0.05100462001
O   -12.12971971   -1.999830656   0.05085668958
O   4.001134958   -1.999830656   0.05085668958
O   -0.03143321252   -1.999750331   0.05100466477
O   16.09942146   -1.999750331   0.05100466477
O   -11.88611404   -1.983110334   -8.084700976
O   4.244740628   -1.983110334   -8.084700976
O   -9.959154491   -1.944521474   -6.027292635
O   6.171700181   -1.944521474   -6.027292635
O   -5.974623601   -1.944102949   -6.034841389
O   10.15623107   -1.944102949   -6.034841389
O   -1.952616864   -1.940520425   -6.094614736
O   14.17823781   -1.940520425   -6.094614736
O   -1.934543274   -1.934869549   -1.976631404
O   14.1963114   -1.934869549   -1.976631404
O   -5.9671523   -1.934837206   -1.976667152
O   10.16370237   -1.934837206   -1.976667152
O   -14.03274228   -1.934667889   -1.976818386
O   2.098112392   -1.934667889   -1.976818386
O   -14.02776417   -1.934636485   -5.886478452
O   2.103090504   -1.934636485   -5.886478452
O   -9.999650645   -1.934496689   -1.976708956
O   6.131204027   -1.934496689   -1.976708956
O   -11.9288634   -1.918381488   -3.988240626
O   4.201991275   -1.918381488   -3.988240626
O   -16.04905541   -1.912247133   -4.004933233
O   0.08179926159   -1.912247133   -4.004933233
O   -7.898129201   -1.897540043   -3.991055113
O   8.232725472   -1.897540043   -3.991055113
O   -3.876159013   -1.888607524   -4.015107464
O   12.25469566   -1.888607524   -4.015107464
O   -0.01116403547   -1.848891333   -8.334610802
O   16.11969064   -1.848891333   -8.334610802
Ti   -2.171030719   -1.843961477   -7.962490512
Ti   13.95982395   -1.843961477   -7.962490512
Ti   -13.82277817   -1.843601228   -8.598675389
Ti   2.308076507   -1.843601228   -8.598675389
Ti   -5.872240359   -1.839766631   -0.07288608243
Ti   10.25861431   -1.839766631   -0.07288608243
Ti   -1.839682735   -1.839747383   -0.07327648984
Ti   14.29117194   -1.839747383   -0.07327648984
Ti   -9.905047743   -1.839698496   -0.0733873072
Ti   6.225806929   -1.839698496   -0.0733873072
Ti   -13.93781565   -1.83966211   -0.07309098259
Ti   2.193039018   -1.83966211   -0.07309098259
Ti   -6.091447367   -1.839558484   -7.923105476
Ti   10.03940731   -1.839558484   -7.923105476
O   -13.84268749   -1.834474248   -10.24012009
O   2.288167181   -1.834474248   -10.24012009
Ti   -10.01800644   -1.828233351   -7.924984586
Ti   6.112848234   -1.828233351   -7.924984586
H   -16.12793918   -1.118702801   -8.988729551
H   0.002915487851   -1.118702801   -8.988729551
O   -6.013285052   -0.04290298979   -8.046167582
O   10.11756962   -0.04290298979   -8.046167582
O   -6.032465304   -0.03167437162   0.05092867796
O   10.09838937   -0.03167437162   0.05092867796
O   -1.99979359   -0.03155143555   0.05072130009
O   14.13106108   -0.03155143555   0.05072130009
O   -10.06523195   -0.03146640457   0.05077003867
O   6.065622723   -0.03146640457   0.05077003867
O   -14.09776528   -0.03144643458   0.05063186943
O   2.033089389   -0.03144643458   0.05063186943
O   -2.049161334   -0.02864768008   -8.107297446
O   14.08169334   -0.02864768008   -8.107297446
O   -9.985069801   -0.02843046844   -8.021393124
O   6.145784871   -0.02843046844   -8.021393124
Ba   -16.01983853   0.01224723849   -6.189496122
Ba   0.1110161471   0.01224723849   -6.189496122
Ba   -12.0823061   0.01500678252   -6.112190632
Ba   4.048548574   0.01500678252   -6.112190632
Ba   -3.944379296   0.08795316652   -1.912658867
Ba   12.18647538   0.08795316652   -1.912658867
Ba   -12.00976976   0.08798741837   -1.91266426
Ba   4.12108491   0.08798741837   -1.91266426
Ba   -16.04257583   0.08807900412   -1.912669086
Ba   0.08827884323   0.08807900412   -1.912669086
Ba   -7.976866613   0.08808302191   -1.912772488
Ba   8.153988059   0.08808302191   -1.912772488
Ba   -8.009310866   0.0938891686   -6.05673699
Ba   8.121543806   0.0938891686   -6.05673699
Ba   -3.996790258   0.1006084027   -6.077573634
Ba   12.13406441   0.1006084027   -6.077573634
O   -14.04076916   0.113023494   -8.110202775
O   2.090085508   0.113023494   -8.110202775
O   -9.964691242   0.1513850256   -3.998462034
O   6.166163431   0.1513850256   -3.998462034
O   -14.01681082   0.1530259078   -3.979645853
O   2.114043851   0.1530259078   -3.979645853
O   -1.901530254   0.1535205249   -4.021127912
O   14.22932442   0.1535205249   -4.021127912
O   -5.932089936   0.1605389824   -4.000213434
O   10.19876474   0.1605389824   -4.000213434
Ti   -14.14330511   1.983582078   -4.026036431
Ti   1.987549561   1.983582078   -4.026036431
Ti   -2.016154037   1.988088919   -4.025027853
Ti   14.11470064   1.988088919   -4.025027853
Ti   -10.11256603   1.996625977   -4.005085652
Ti   6.018288641   1.996625977   -4.005085652
Ti   -6.061230024   2.011851292   -3.998240529
Ti   10.06962465   2.011851292   -3.998240529
O   -0.0672913443   2.022501887   -8.0763155
O   16.06356333   2.022501887   -8.0763155
O   -8.072488698   2.023150783   -8.048262109
O   8.058365974   2.023150783   -8.048262109
O   -4.064076925   2.032597081   0.05080885192
O   12.06677775   2.032597081   0.05080885192
O   -12.12935349   2.03264198   0.05077475129
O   4.001501184   2.03264198   0.05077475129
O   -8.096864227   2.032721958   0.05095410744
O   8.033990446   2.032721958   0.05095410744
O   -0.03131342358   2.0328023   0.05087843882
O   16.09954125   2.0328023   0.05087843882
O   -12.04637964   2.042017079   -8.013744968
O   4.084475032   2.042017079   -8.013744968
O   -4.09845674   2.042077561   -8.073717569
O   12.03239793   2.042077561   -8.073717569
O   -14.02991183   2.084422825   -6.030185329
O   2.100942841   2.084422825   -6.030185329
O   -1.951370017   2.08516187   -6.044302794
O   14.17948466   2.08516187   -6.044302794
Ti   -13.87591075   2.090820931   -7.956908815
Ti   2.254943921   2.090820931   -7.956908815
O   -5.967125861   2.097762545   -1.976773379
O   10.16372881   2.097762545   -1.976773379
O   -1.93437893   2.097880077   -1.976785025
O   14.19647574   2.097880077   -1.976785025
O   -14.03231713   2.098042025   -1.976899511
O   2.098537545   2.098042025   -1.976899511
O   -9.999530148   2.098227352   -1.976906163
O   6.131324525   2.098227352   -1.976906163
O   -5.977264181   2.105563626   -6.026099079
O   10.15359049   2.105563626   -6.026099079
O   -9.980197565   2.108345193   -6.013569957
O   6.150657107   2.108345193   -6.013569957
O   -11.94978252   2.126972057   -4.003811524
O   4.181072152   2.126972057   -4.003811524
O   -15.98931237   2.13651395   -4.014792418
O   0.1415422999   2.13651395   -4.014792418
O   -3.875552366   2.139010928   -4.003303448
O   12.25530231   2.139010928   -4.003303448
O   -7.906494045   2.141801899   -3.990495369
O   8.224360627   2.141801899   -3.990495369
Ti   -1.858586491   2.181447747   -7.950109995
Ti   14.27226818   2.181447747   -7.950109995
Ti   -13.93755061   2.192644406   -0.07352053233
Ti   2.193304065   2.192644406   -0.07352053233
Ti   -1.839479792   2.19278705   -0.07296256083
Ti   14.29137488   2.19278705   -0.07296256083
Ti   -5.87221413   2.192815963   -0.07305665936
Ti   10.25864054   2.192815963   -0.07305665936
Ti   -9.904968198   2.192912733   -0.07312189576
Ti   6.225886474   2.192912733   -0.07312189576
Ti   -9.900904881   2.193821132   -7.913602539
Ti   6.229949791   2.193821132   -7.913602539
Ti   -5.904731536   2.210174595   -7.931509676
Ti   10.22612314   2.210174595   -7.931509676
O   -14.08124566   3.972828857   -8.093537295
O   2.04960901   3.972828857   -8.093537295
O   -10.03687433   3.998091009   -8.054644806
O   6.09398034   3.998091009   -8.054644806
O   -2.016284241   3.999956718   -8.075002372
O   14.11457043   3.999956718   -8.075002372
O   -14.09755325   4.000891242   0.05090340252
O   2.03330142   4.000891242   0.05090340252
O   -6.032393251   4.000891472   0.05080133535
O   10.09846142   4.000891472   0.05080133535
O   -1.999789654   4.000930994   0.05093195373
O   14.13106502   4.000930994   0.05093195373
O   -10.06526819   4.001039296   0.05085167571
O   6.065586481   4.001039296   0.05085167571
O   -6.04813609   4.023288752   -8.048488316
O   10.08271858   4.023288752   -8.048488316
