300
AboveBa Tight SmallSlab
O     -5.925245007     -7.907096802     -4.005053485
O     10.20560966     -7.907096802     -4.005053485
O     -1.894398987     -7.905386488     -4.011953561
O     14.23645568     -7.905386488     -4.011953561
O     6.172717351     -7.905154497     -4.002054676
O     -9.958137322     -7.905154497     -4.002054676
O     2.139910969     -7.905034115     -4.005362124
O     -13.9909437     -7.905034115     -4.005362124
Ti     -6.06118935     -6.057694604     -4.012571879
Ti     10.06966532     -6.057694604     -4.012571879
Ti     -2.023910628     -6.057470059     -4.019638344
Ti     14.10694404     -6.057470059     -4.019638344
Ti     6.026299057     -6.050530991     -4.015810861
Ti     -10.10455562     -6.050530991     -4.015810861
O     4.025694407     -6.050417342     -8.061671098
O     -12.10516027     -6.050417342     -8.061671098
O     8.029331553     -6.039355176     -8.069587561
O     -8.101523119     -6.039355176     -8.069587561
O     -0.03427662368     -6.03569293     -8.083810816
O     16.09657805     -6.03569293     -8.083810816
O     -4.076197369     -6.033258016     -8.078609589
O     12.0546573     -6.033258016     -8.078609589
O     -4.064173517     -6.032919968     0.05069448698
O     12.06668116     -6.032919968     0.05069448698
O     8.033953877     -6.03283893     0.05095368482
O     -8.096900795     -6.03283893     0.05095368482
O     -0.03118296287     -6.032627866     0.05089136568
O     16.09967171     -6.032627866     0.05089136568
O     4.001274665     -6.032446939     0.0511608925
O     -12.12958001     -6.032446939     0.0511608925
Ti     1.993080054     -6.029249615     -4.01976724
Ti     -14.13777462     -6.029249615     -4.01976724
O     2.093282533     -5.9857607     -6.058373804
O     -14.03757214     -5.9857607     -6.058373804
O     -1.93836453     -5.96979045     -6.053402823
O     14.19249014     -5.96979045     -6.053402823
O     -5.971857013     -5.969567457     -6.041711132
O     10.15899766     -5.969567457     -6.041711132
O     6.1307068     -5.969389267     -6.034107575
O     -10.00014787     -5.969389267     -6.034107575
O     -5.967533419     -5.967685344     -1.976682867
O     10.16332125     -5.967685344     -1.976682867
O     -1.934473609     -5.967560197     -1.976713601
O     14.19638106     -5.967560197     -1.976713601
O     6.13100761     -5.967398061     -1.976790874
O     -9.999847062     -5.967398061     -1.976790874
O     2.098590041     -5.967114457     -1.976757606
O     -14.03226463     -5.967114457     -1.976757606
O     0.147237557     -5.930082179     -4.019285855
O     -15.98361712     -5.930082179     -4.019285855
O     -3.872478837     -5.927261347     -4.012087818
O     12.25837584     -5.927261347     -4.012087818
O     4.192093094     -5.924430524     -4.012846368
O     -11.93876158     -5.924430524     -4.012846368
O     -7.901095471     -5.923873582     -4.006121748
O     8.229759201     -5.923873582     -4.006121748
Ti     2.205844728     -5.878319924     -7.966076811
Ti     -13.92500994     -5.878319924     -7.966076811
Ti     -1.840439736     -5.873057252     -7.9545968
Ti     14.29041494     -5.873057252     -7.9545968
Ti     -1.83939566     -5.872692156     -0.07296133287
Ti     14.29145901     -5.872692156     -0.07296133287
Ti     6.22583392     -5.87262429     -0.07346114982
Ti     -9.905020752     -5.87262429     -0.07346114982
Ti     -5.872359873     -5.872587189     -0.07336639677
Ti     10.2584948     -5.872587189     -0.07336639677
Ti     -5.885520774     -5.872330367     -7.944631908
Ti     10.2453339     -5.872330367     -7.944631908
Ti     2.193205433     -5.872307935     -0.07295293837
Ti     -13.93764924     -5.872307935     -0.07295293837
Ti     6.212294052     -5.870145779     -7.935858519
Ti     -9.918560621     -5.870145779     -7.935858519
O     2.06391185     -4.090297622     -8.080020335
O     -14.06694282     -4.090297622     -8.080020335
O     6.069127264     -4.068116642     -8.059159914
O     -10.06172741     -4.068116642     -8.059159914
O     -2.002917486     -4.064743556     -8.084412049
O     14.12793719     -4.064743556     -8.084412049
O     -6.043844737     -4.064687866     -8.070539776
O     10.08700994     -4.064687866     -8.070539776
O     -1.999797891     -4.064611965     0.0510128782
O     14.13105678     -4.064611965     0.0510128782
O     6.065780567     -4.064381093     0.05090767276
O     -10.0650741     -4.064381093     0.05090767276
O     -6.032359271     -4.064326199     0.05097876225
O     10.0984954     -4.064326199     0.05097876225
O     2.032933524     -4.064152849     0.05086660562
O     -14.09792115     -4.064152849     0.05086660562
Ba     -3.94435161     -3.944784583     -1.912324892
Ba     12.18650306     -3.944784583     -1.912324892
Ba     -7.977050739     -3.94465305     -1.912443001
Ba     8.153803934     -3.94465305     -1.912443001
Ba     4.121197697     -3.944577322     -1.912669097
Ba     -12.00965698     -3.944577322     -1.912669097
Ba     0.08824495674     -3.944565506     -1.912482874
Ba     -16.04260972     -3.944565506     -1.912482874
Ba     -3.944209884     -3.941313146     -6.112370789
Ba     12.18664479     -3.941313146     -6.112370789
Ba     -7.990288948     -3.938059068     -6.10884366
Ba     8.140565724     -3.938059068     -6.10884366
O     2.126277076     -3.927782016     -4.007073081
O     -14.0045776     -3.927782016     -4.007073081
Ba     0.1169242247     -3.915067511     -6.165851391
Ba     -16.01393045     -3.915067511     -6.165851391
Ba     4.074181511     -3.906591529     -6.146207246
Ba     -12.05667316     -3.906591529     -6.146207246
O     -1.900631934     -3.884599156     -4.019972975
O     14.23022274     -3.884599156     -4.019972975
O     6.17843813     -3.879966024     -4.005127317
O     -9.952416542     -3.879966024     -4.005127317
O     -5.91864606     -3.879099175     -4.006690595
O     10.21220861     -3.879099175     -4.006690595
Ti     1.985681168     -2.044439262     -4.088339945
Ti     -14.1451735     -2.044439262     -4.088339945
Ti     -1.996196641     -2.040317991     -4.013541992
Ti     14.13465803     -2.040317991     -4.013541992
Ti     6.025937468     -2.032934629     -4.009617252
Ti     -10.1049172     -2.032934629     -4.009617252
Ti     -6.046094132     -2.031775141     -4.008293526
Ti     10.08476054     -2.031775141     -4.008293526
O     -4.064068977     -2.000043724     0.05091994431
O     12.0667857     -2.000043724     0.05091994431
O     8.033916296     -1.999921805     0.05100462001
O     -8.096938376     -1.999921805     0.05100462001
O     4.001134958     -1.999830656     0.05085668958
O     -12.12971971     -1.999830656     0.05085668958
O     -0.03143321252     -1.999750331     0.05100466477
O     16.09942146     -1.999750331     0.05100466477
O     -4.084100092     -1.995108175     -8.089468477
O     12.04675458     -1.995108175     -8.089468477
O     8.019329148     -1.987691615     -8.082837964
O     -8.111525525     -1.987691615     -8.082837964
O     4.047958583     -1.965905365     -8.106671274
O     -12.08289609     -1.965905365     -8.106671274
O     -0.05603652438     -1.961505433     -8.092965843
O     16.07481815     -1.961505433     -8.092965843
O     -5.97300114     -1.937422686     -6.047073848
O     10.15785353     -1.937422686     -6.047073848
O     -1.934543274     -1.934869549     -1.976631404
O     14.1963114     -1.934869549     -1.976631404
O     -5.9671523     -1.934837206     -1.976667152
O     10.16370237     -1.934837206     -1.976667152
O     -1.950484667     -1.934721484     -6.060222926
O     14.18037001     -1.934721484     -6.060222926
O     2.098112392     -1.934667889     -1.976818386
O     -14.03274228     -1.934667889     -1.976818386
O     6.131204027     -1.934496689     -1.976708956
O     -9.999650645     -1.934496689     -1.976708956
O     6.124258286     -1.934216783     -6.04375775
O     -10.00659639     -1.934216783     -6.04375775
O     2.093986446     -1.92817192     -5.917921217
O     -14.03686823     -1.92817192     -5.917921217
O     4.196080589     -1.909552081     -3.987729303
O     -11.93477408     -1.909552081     -3.987729303
O     0.09868840677     -1.906829104     -3.995921469
O     -16.03216627     -1.906829104     -3.995921469
O     -7.894888824     -1.896026693     -4.005188902
O     8.235965848     -1.896026693     -4.005188902
O     -3.873047919     -1.891868992     -4.007310103
O     12.25780675     -1.891868992     -4.007310103
Ti     -5.872240359     -1.839766631     -0.07288608243
Ti     10.25861431     -1.839766631     -0.07288608243
Ti     -1.839682735     -1.839747383     -0.07327648984
Ti     14.29117194     -1.839747383     -0.07327648984
Ti     6.225806929     -1.839698496     -0.0733873072
Ti     -9.905047743     -1.839698496     -0.0733873072
Ti     2.193039018     -1.83966211     -0.07309098259
Ti     -13.93781565     -1.83966211     -0.07309098259
Ti     -5.889827596     -1.834752384     -7.948136659
Ti     10.24102708     -1.834752384     -7.948136659
Ti     -1.852433635     -1.827834839     -7.961329824
Ti     14.27842104     -1.827834839     -7.961329824
Ti     6.199935185     -1.818716278     -7.950884684
Ti     -9.930919488     -1.818716278     -7.950884684
O     2.046015945     -1.81245862     -10.25127196
O     -14.08483873     -1.81245862     -10.25127196
Ti     2.244217784     -1.761330652     -8.431340153
Ti     -13.88663689     -1.761330652     -8.431340153
H     1.264048247     -1.335556637     -10.58492392
H     -14.86680643     -1.335556637     -10.58492392
O     -6.032465304     -0.03167437162     0.05092867796
O     10.09838937     -0.03167437162     0.05092867796
O     -1.99979359     -0.03155143555     0.05072130009
O     14.13106108     -0.03155143555     0.05072130009
O     6.065622723     -0.03146640457     0.05077003867
O     -10.06523195     -0.03146640457     0.05077003867
O     2.033089389     -0.03144643458     0.05063186943
O     -14.09776528     -0.03144643458     0.05063186943
O     -6.045370667     -0.02179550795     -8.062448706
O     10.08548401     -0.02179550795     -8.062448706
O     -2.021194821     -0.01129917776     -8.07880599
O     14.10965985     -0.01129917776     -8.07880599
O     6.057352718     -0.003617596608     -8.046618649
O     -10.07350195     -0.003617596608     -8.046618649
Ba     4.063436626     0.03759455498     -6.12597516
Ba     -12.06741805     0.03759455498     -6.12597516
O     2.051232212     0.04362859354     -8.063116477
O     -14.07962246     0.04362859354     -8.063116477
Ba     0.1146525345     0.04789668098     -6.13427632
Ba     -16.01620214     0.04789668098     -6.13427632
Ba     -7.98758838     0.07798544322     -6.090536767
Ba     8.143266292     0.07798544322     -6.090536767
Ba     -3.946400087     0.07891191644     -6.095960931
Ba     12.18445459     0.07891191644     -6.095960931
Ba     -3.944379296     0.08795316652     -1.912658867
Ba     12.18647538     0.08795316652     -1.912658867
Ba     4.12108491     0.08798741837     -1.91266426
Ba     -12.00976976     0.08798741837     -1.91266426
Ba     0.08827884323     0.08807900412     -1.912669086
Ba     -16.04257583     0.08807900412     -1.912669086
Ba     -7.976866613     0.08808302191     -1.912772488
Ba     8.153988059     0.08808302191     -1.912772488
O     6.16699586     0.1490804499     -3.997371907
O     -9.963858812     0.1490804499     -3.997371907
O     -5.92445736     0.1570602893     -4.002320798
O     10.20639731     0.1570602893     -4.002320798
O     -1.896433898     0.1610975576     -4.01100324
O     14.23442077     0.1610975576     -4.01100324
O     2.116920189     0.1666225051     -3.98700865
O     -14.01393448     0.1666225051     -3.98700865
Ti     6.024545847     1.991617156     -4.009307207
Ti     -10.10630883     1.991617156     -4.009307207
Ti     -2.02012355     1.994963912     -4.011701387
Ti     14.11073112     1.994963912     -4.011701387
Ti     1.994899474     1.99744128     -4.004945679
Ti     -14.1359552     1.99744128     -4.004945679
Ti     -6.058800699     2.001122459     -4.005463592
Ti     10.07205397     2.001122459     -4.005463592
O     8.02798466     2.032416644     -8.046771349
O     -8.102870012     2.032416644     -8.046771349
O     -4.064076925     2.032597081     0.05080885192
O     12.06677775     2.032597081     0.05080885192
O     4.001501184     2.03264198     0.05077475129
O     -12.12935349     2.03264198     0.05077475129
O     8.033990446     2.032721958     0.05095410744
O     -8.096864227     2.032721958     0.05095410744
O     -0.03131342358     2.0328023     0.05087843882
O     16.09954125     2.0328023     0.05087843882
O     -4.077014808     2.03545645     -8.062026646
O     12.05383986     2.03545645     -8.062026646
O     -0.04030573951     2.040136096     -8.064660573
O     16.09054893     2.040136096     -8.064660573
O     4.010045716     2.055304824     -8.032492615
O     -12.12080896     2.055304824     -8.032492615
O     6.129015297     2.095391758     -6.015512263
O     -10.00183938     2.095391758     -6.015512263
O     -5.971294264     2.09648605     -6.028407096
O     10.15956041     2.09648605     -6.028407096
O     -1.939694041     2.096842564     -6.035812907
O     14.19116063     2.096842564     -6.035812907
O     -5.967125861     2.097762545     -1.976773379
O     10.16372881     2.097762545     -1.976773379
O     -1.93437893     2.097880077     -1.976785025
O     14.19647574     2.097880077     -1.976785025
O     2.098537545     2.098042025     -1.976899511
O     -14.03231713     2.098042025     -1.976899511
O     6.131324525     2.098227352     -1.976906163
O     -9.999530148     2.098227352     -1.976906163
O     2.087683509     2.109978228     -6.027209964
O     -14.04317116     2.109978228     -6.027209964
O     4.182791893     2.131753371     -3.996969478
O     -11.94806278     2.131753371     -3.996969478
O     -7.905392432     2.134169587     -3.997097523
O     8.225462241     2.134169587     -3.997097523
O     -3.874928147     2.141061759     -4.001765875
O     12.25592653     2.141061759     -4.001765875
O     0.1460806066     2.148635838     -3.999129921
O     -15.98477407     2.148635838     -3.999129921
Ti     2.199685379     2.181354662     -7.931301093
Ti     -13.93116929     2.181354662     -7.931301093
Ti     6.217491927     2.184611839     -7.919098357
Ti     -9.913362745     2.184611839     -7.919098357
Ti     -1.843782625     2.184908224     -7.934783376
Ti     14.28707205     2.184908224     -7.934783376
Ti     -5.882338003     2.186801172     -7.931528851
Ti     10.24851667     2.186801172     -7.931528851
Ti     2.193304065     2.192644406     -0.07352053233
Ti     -13.93755061     2.192644406     -0.07352053233
Ti     -1.839479792     2.19278705     -0.07296256083
Ti     14.29137488     2.19278705     -0.07296256083
Ti     -5.87221413     2.192815963     -0.07305665936
Ti     10.25864054     2.192815963     -0.07305665936
Ti     6.225886474     2.192912733     -0.07312189576
Ti     -9.904968198     2.192912733     -0.07312189576
O     6.06849101     3.99578798     -8.046062215
O     -10.06236366     3.99578798     -8.046062215
O     -6.042893304     3.997351963     -8.061472396
O     10.08796137     3.997351963     -8.061472396
O     -2.011231553     3.999793846     -8.068541762
O     14.11962312     3.999793846     -8.068541762
O     2.03330142     4.000891242     0.05090340252
O     -14.09755325     4.000891242     0.05090340252
O     -6.032393251     4.000891472     0.05080133535
O     10.09846142     4.000891472     0.05080133535
O     -1.999789654     4.000930994     0.05093195373
O     14.13106502     4.000930994     0.05093195373
O     6.065586481     4.001039296     0.05085167571
O     -10.06526819     4.001039296     0.05085167571
O     2.028084428     4.004772296     -8.075673634
O     -14.10277024     4.004772296     -8.075673634
