738
9x4x4 with h above BTO slab version
Ba   -0.000001518719967   -0.000002895891685   2.030354782
Ba   -0.0000003827045271   -0.000004686013282   6.150077567
Ba   -0.00001073710014   -0.000005465940106   -2.0302763
Ba   -0.0000006282967895   -0.00007065717618   -6.152207661
O   -0.0000661344878   2.016027559   -8.052660324
O   2.01634862   -0.000006703176659   -4.027270047
O   2.016354811   0.000004266207789   8.054840652
O   2.016357084   -0.00001286919586   -8.053959293
O   2.016362181   -0.0000006016808793   -0.000006330553916
O   2.016362878   0.00000007339538876   4.028576083
O   0.00000635233057   2.016357245   8.054850355
O   -0.000006099882694   2.016358194   -4.027274765
O   -0.000001422338111   2.016363405   -0.00000575347259
O   -0.0000005395770888   2.01636435   4.028576219
O   -0.000002116368133   -2.016346362   -4.027278003
O   0.000005940590504   -2.016349011   -8.053954635
O   0.000008300937814   -2.016353614   8.054847088
O   0.000002807575256   -2.016361879   4.028579027
O   -0.0000008601778254   -2.016363467   -0.000005752666048
O   -2.016352216   0.000005719194524   8.054845463
O   -2.016355434   -0.000002713613027   -4.027268798
O   -2.016358775   -0.000004228300281   -8.053971017
O   -2.01636195   0.000002628522769   4.028578668
O   -2.016362244   -0.0000007133870479   -0.000006943123122
Ti   2.01633922   2.016344771   -4.010135893
Ti   2.016357385   2.016354124   7.944680279
Ti   2.016361059   2.01635442   4.006668073
O   2.016359896   2.016360388   2.019995523
O   2.016362739   2.016363581   -2.019946439
Ti   2.016366103   2.016367427   -0.000005046537884
O   2.016367445   2.016369547   6.068294134
Ti   2.016412276   2.016350333   -7.946439921
O   2.016400719   2.016362594   -6.065036849
O   2.016349167   -2.016341389   -6.0650518
Ti   2.016337741   -2.016353306   -4.010090923
O   2.016353442   -2.016354318   2.019993693
O   2.016359029   -2.01635709   -2.019946095
Ti   2.016355802   -2.016360834   7.944677622
Ti   2.01635461   -2.01636354   4.006668131
Ti   2.016354398   -2.016370087   -7.946242637
O   2.016366099   -2.016366379   6.068292141
Ti   2.016365751   -2.016371087   -0.000005103802418
Ti   -2.016343255   2.016339695   -4.010133798
O   -2.0163536   2.016354312   2.019993088
Ti   -2.016367451   2.016349167   4.006667475
O   -2.016356539   2.016360254   -2.019946527
Ti   -2.016362493   2.01635439   7.944677105
O   -2.016366766   2.016366257   6.068290589
Ti   -2.016368971   2.016366991   -0.000005389318546
Ti   -2.016421876   2.016337073   -7.946378733
O   -2.016399149   2.016365622   -6.065030523
Ti   -2.016343612   -2.016351158   -4.010094036
O   -2.016353662   -2.016345204   -6.065050421
O   -2.016354062   -2.016354935   2.019993943
Ti   -2.016362956   -2.016356746   4.006668217
Ti   -2.016362329   -2.016360462   7.944679235
O   -2.016360997   -2.016361835   -2.019946731
O   -2.016369228   -2.016368104   6.068295029
Ti   -2.016367829   -2.016370365   -0.000005258658623
Ti   -2.016363141   -2.016375637   -7.946242821
H   0.06678736438   2.995899413   -11.11938568
Ba   0.00000179980011   4.032675878   -6.15224431
Ba   -0.000005336086726   4.032730476   2.030360395
Ba   -0.00001095325359   4.032752656   6.150076014
Ba   -0.00001235784776   4.03276546   -2.030296069
Ba   4.032803948   -0.000007450438502   6.150080148
Ba   4.032806471   -0.000113864477   -6.152186285
Ba   4.032810373   -0.000007533512403   -2.030328874
Ba   4.032890095   -0.00001178116971   2.030133288
Ba   0.000004435581764   -4.032705135   -6.152201946
Ba   -0.000003055990418   -4.03273286   2.030358138
Ba   -0.000006898360001   -4.032758492   6.150073643
Ba   -0.000007756521469   -4.032771082   -2.030292302
Ba   -4.032810577   -0.0001094466391   -6.152197118
Ba   -4.032813917   -0.000000277047429   6.150076934
Ba   -4.032815111   -0.000002866049604   -2.030326939
Ba   -4.032893334   -0.00000725807806   2.030128854
O   4.032694978   2.016360029   0.00000475013343
O   4.032708029   2.016361999   8.054843064
O   2.016359497   4.032696089   0.000004677544584
O   4.032717906   2.016358323   4.028573917
O   4.032721476   2.016351909   -8.053979296
O   2.01633467   4.03271711   -8.054053974
O   2.016358657   4.032707784   8.054844649
O   2.016357575   4.03271808   4.028575269
O   4.032742774   2.016370968   -4.027267546
O   2.016361251   4.032734401   -4.027267647
O   4.032692696   -2.016358403   0.000002533753998
O   4.032705947   -2.016359286   8.054843616
O   4.032717096   -2.016357541   4.028573754
O   4.032723621   -2.016350099   -8.053942091
O   -2.016333192   4.032702745   -8.054061652
O   4.032738299   -2.0163611   -4.027266677
O   -2.016358249   4.032693755   0.00000247850582
O   -2.016358108   4.032708764   8.054844919
O   -2.016358073   4.032718257   4.028574626
O   -2.016366356   4.032731959   -4.027266256
O   2.016359498   -4.032695022   0.000004873131197
O   2.016358011   -4.032698222   -8.053929952
O   2.016358974   -4.032703868   8.054845052
O   2.01635735   -4.032717048   4.028575325
O   2.016360149   -4.032728611   -4.027265646
O   -4.032693857   2.016360081   0.00000476787737
O   -4.032703625   2.016360483   8.054845024
O   -4.032714672   2.016353911   -8.053981855
O   -4.032717023   2.016357643   4.028573675
O   -4.032740791   2.016370744   -4.027267685
O   -2.016359454   -4.032693225   0.000002672076076
O   -2.016356957   -4.032696356   -8.053938267
O   -2.016358337   -4.032704493   8.054847314
O   -4.032691847   -2.016359841   0.000002552707752
O   -2.016358405   -4.032716269   4.028574927
O   -4.032702376   -2.01636029   8.054848851
O   -4.032716003   -2.016358352   4.028573794
O   -2.01636667   -4.032728093   -4.027264373
O   -4.032721724   -2.01635141   -8.053944022
O   -4.032737748   -2.016361866   -4.0272669
Ba   4.032812432   4.032733786   -6.152219368
Ba   4.032804924   4.032747745   6.150084943
Ba   4.032807852   4.032757451   -2.030336764
Ba   4.032873174   4.032787971   2.030155943
Ba   4.032824055   -4.032717992   -6.152209632
Ba   4.032804682   -4.032746228   6.150080547
Ba   4.032806154   -4.032757637   -2.030334506
Ba   -4.032817446   4.032731739   -6.152231157
Ba   -4.032806594   4.032748862   6.150081479
Ba   -4.03280807   4.032755846   -2.030337071
Ba   4.032872694   -4.03278741   2.03015321
Ba   -4.032873303   4.032786205   2.030152403
Ba   -4.032828605   -4.03271835   -6.152210621
Ba   -4.032808965   -4.032752471   6.15007795
Ba   -4.032807171   -4.032756588   -2.030332671
Ba   -4.032872464   -4.032787132   2.030149687
O   6.049057364   -0.00001552191491   -8.053951513
O   6.049064016   -0.000005376817134   -4.027277466
O   6.04906657   0.0000007008856355   0.000001563483089
O   6.049068087   0.000002296227163   8.05484904
O   6.049071942   0   4.028580199
O   0.000001116658415   6.049049852   -8.054032142
O   -0.000005432468582   6.049057425   -4.027283502
O   0   6.049067897   0.000001854645016
O   0.000002692239645   6.049068954   8.054851262
O   -0.0000005536915866   6.049071688   4.028580477
O   0.0000005899860096   -6.049066366   -8.053976559
O   0   -6.049067324   0.00000171430658
O   0.000001764715501   -6.049068792   8.054853509
O   -0.0000007545207273   -6.049071595   4.028580441
O   -0.000005119933273   -6.049072447   -4.027282813
O   -6.049054636   -0.00001715193777   -8.053955697
O   -6.049060641   -0.000004338393364   -4.027278236
O   -6.049066385   0.0000007658123256   0.000001611875653
O   -6.04906707   0.000003027761422   8.054850839
O   -6.049071349   0   4.028580291
Ti   6.049046182   2.016347523   -4.01011692
O   6.049053063   2.016375553   -6.065058119
O   6.04906019   2.016363388   -2.019941404
O   6.049063893   2.016356379   2.019993838
Ti   2.016350732   6.049047881   -4.010134188
O   6.049064764   2.016365498   6.068309401
O   2.01635145   6.049051519   -6.065047318
Ti   6.049075422   2.016363781   4.00665438
Ti   6.049078862   2.016365993   7.944675138
O   2.016362559   6.04906088   -2.019940182
O   2.016355352   6.049064739   2.019993361
O   2.016365526   6.049064211   6.068309914
Ti   2.016368933   6.049069288   4.006661508
Ti   6.049093862   2.016368412   -7.946250224
Ti   2.016368111   6.049076793   7.944677001
Ti   6.049099897   2.016391507   -0.00002081162543
Ti   6.049045708   -2.016362792   -4.01007956
O   6.049053134   -2.016345649   -6.065085673
Ti   2.016398992   6.049092932   -0.00002239204591
Ti   2.01637855   6.049099863   -7.946275272
O   6.049062207   -2.016356364   2.019994893
O   6.049063509   -2.01636374   -2.01993924
O   6.049065377   -2.016366969   6.068310119
Ti   6.0490772   -2.016366884   4.006656462
Ti   6.049080527   -2.016369563   7.944674762
Ti   -2.01635672   6.049047099   -4.010137674
Ti   6.049080741   -2.016386006   -7.94623792
O   -2.016356597   6.049050446   -6.065047456
O   -2.016355354   6.049063054   2.019993183
O   -2.0163628   6.049064534   -2.019938256
O   -2.016367792   6.049064062   6.068307651
Ti   6.049101078   -2.016394967   -0.00002061240937
Ti   -2.01637556   6.049071849   4.006661282
Ti   -2.016370572   6.04907768   7.944675025
Ti   -2.016402483   6.049093718   -0.00002160002095
Ti   -2.016383406   6.049101892   -7.946269711
Ti   2.016352565   -6.049041896   -4.0101028
O   2.016362229   -6.049061328   -2.019941469
O   2.016355161   -6.049065328   2.019993271
O   2.016365751   -6.049064739   6.068308321
Ti   2.016368826   -6.049070627   4.006661629
O   2.016348302   -6.049079397   -6.065066711
Ti   2.016371357   -6.049071852   -7.9462457
Ti   2.01636846   -6.049084399   7.94467992
Ti   -6.049050905   2.016347935   -4.010123771
O   -6.049049988   2.016374675   -6.065056443
O   -6.049060771   2.016363146   -2.019942129
O   -6.049064401   2.016356098   2.019994066
Ti   2.016399382   -6.049093827   -0.00002263804145
O   -6.049064901   2.016365337   6.068309018
Ti   -6.04907589   2.016364912   4.006652922
Ti   -6.049086472   2.016365654   7.944674283
Ti   -2.016357916   -6.049039754   -4.010104507
Ti   -6.049100493   2.016392151   -0.00002171737292
Ti   -6.049110716   2.016365007   -7.946254582
O   -2.01635517   -6.04906353   2.019993682
O   -2.016362575   -6.049064844   -2.019939448
O   -6.049050191   -2.016344996   -6.065085251
O   -2.016367599   -6.049064872   6.068308276
Ti   -6.049049624   -2.016362901   -4.010084807
O   -2.016353998   -6.049078387   -6.065066894
Ti   -2.016376265   -6.049072752   4.006662769
Ti   -2.016380904   -6.049072116   -7.946242648
O   -6.049062699   -2.016356032   2.019994736
O   -6.049063921   -2.016363435   -2.019940286
Ti   -2.016371496   -6.049083036   7.944678501
O   -6.049065373   -2.016367091   6.068307486
Ti   -6.049077047   -2.016369095   4.006654254
Ti   -2.016402983   -6.049093198   -0.00002108141397
Ti   -6.049085839   -2.016370238   7.944675787
Ti   -6.049090649   -2.016386849   -7.946236836
Ti   -6.049100364   -2.016396301   -0.00002133708802
O   6.049061503   4.032700696   -8.053969875
O   6.049061195   4.032704436   8.054839575
O   6.049065594   4.032701438   -0.000005174778179
O   6.049062025   4.032710117   4.028576906
O   4.03270375   6.049062292   8.054839628
O   4.03270054   6.049065772   -0.000005353024123
O   4.032709364   6.049062009   4.028575658
O   4.032724939   6.049058252   -8.053963659
O   6.049073657   4.032739565   -4.027266933
O   4.032746707   6.049071035   -4.027264911
O   6.049060682   -4.032701833   8.05483599
O   6.049062033   -4.032703647   -8.05389414
O   6.049065243   -4.03270094   -0.000004807397964
O   6.049061989   -4.032709032   4.028576826
O   6.049075272   -4.032735913   -4.027259322
O   -4.032699727   6.049065239   -0.000004623102949
O   -4.032704414   6.049063957   8.054843144
O   -4.032708463   6.049061872   4.028575591
O   -4.032717947   6.049058347   -8.053963683
O   4.032704113   -6.049062525   8.054841729
O   4.032700409   -6.049066296   -0.000005172761822
O   4.032709849   -6.04906257   4.028575557
O   -4.032744393   6.049070623   -4.027264329
O   4.032735475   -6.049071253   -8.053926115
O   -6.049060473   4.032698637   -8.053975627
O   4.03274727   -6.049084546   -4.027264206
O   -6.049060977   4.032703295   8.054836402
O   -6.049065812   4.032701364   -0.000005169938922
O   -6.049062638   4.032709446   4.02857678
O   -6.049071459   4.032739536   -4.027266298
O   -4.032700108   -6.049065981   -0.000004572290757
O   -4.032705399   -6.049063316   8.054847052
O   -4.032708547   -6.049062255   4.028575449
O   -6.049059182   -4.032700136   -8.05389601
O   -6.049060626   -4.032701414   8.054836442
O   -6.049065627   -4.032701392   -0.000005080009408
O   -6.049062433   -4.032708493   4.028576633
O   -4.032726399   -6.049070824   -8.053931144
O   -6.04907344   -4.032735654   -4.027259785
O   -4.03274451   -6.049084518   -4.027263904
Ba   8.065427212   -0.0001048578143   -6.152179612
Ba   8.065432446   -0.000005097753348   2.030349695
Ba   8.065435652   -0.000003931895826   6.150059585
Ba   8.065438769   -0.000006704789745   -2.030276586
Ba   -0.000005282048362   8.065433063   2.03035702
Ba   -0.000009324037272   8.065434184   6.150068642
Ba   -0.00001032294045   8.065435087   -2.03028109
Ba   0.0000007129837765   8.065522788   -6.152202823
Ba   -8.065415903   -0.000006704789745   -2.030276586
Ba   -8.065419021   -0.000003931895826   6.150059585
Ba   -8.065422227   -0.000005097753348   2.030349695
Ba   -8.06542746   -0.0001048578143   -6.152179612
O   8.065427336   2.016351946   4.028573426
O   8.065427336   2.016352436   0.000001904650665
O   8.065429284   2.016351965   8.054838108
O   8.065431475   2.016349792   -8.053939767
O   8.065430431   2.016368285   -4.027264701
O   2.016351592   8.065426691   0.000002022002633
O   2.016351959   8.065427336   4.028573584
O   2.016350449   8.065428631   8.054841306
O   2.016357533   8.06542844   -4.027270339
O   2.016343975   8.065444839   -8.053975822
O   8.065427336   -2.016352419   0.000001530011566
O   8.065427336   -2.016353389   4.028573228
O   8.065428143   -2.016351963   8.054838285
O   8.065432464   -2.01634068   -8.053911881
O   8.065429862   -2.016351379   -4.027270553
O   -2.016353246   8.065426526   4.028572932
O   -2.016352255   8.065427336   0.00000174374539
O   -2.016349796   8.065428784   8.054842636
O   -2.016355354   8.065427592   -4.027276431
O   -2.016344885   8.06544643   -8.053974731
O   -8.065423197   2.016349792   -8.053939767
O   -8.065425388   2.016351965   8.054838108
O   -8.065427336   2.016351946   4.028573426
O   -8.065427336   2.016352436   0.000001904650665
O   -8.065424241   2.016368285   -4.027264701
O   -8.065422208   -2.01634068   -8.053911881
O   -8.06542481   -2.016351379   -4.027270553
O   -8.06542653   -2.016351963   8.054838285
O   -8.065427336   -2.016352419   0.000001530011566
O   -8.065427336   -2.016353389   4.028573228
O   6.049051271   6.049043974   -6.065053048
O   6.049065998   6.049064046   6.06832479
O   6.049067312   6.049068187   2.019993885
O   6.049067373   6.049068252   -2.019933775
Ti   6.049072097   6.049072475   -4.010087451
Ti   6.049089609   6.049083443   4.006631823
Ti   6.049100808   6.049100743   7.944705383
Ti   6.049114193   6.049114434   -7.946188558
Ti   6.049129259   6.04912179   -0.00002180326972
O   6.049052639   -6.049074751   -6.065078461
O   6.049065316   -6.049064885   6.068325302
O   6.049067232   -6.049068736   2.019994415
O   6.049067215   -6.0490688   -2.019934549
Ti   6.049071115   -6.049066011   -4.01005346
O   -6.049049182   6.049043021   -6.065047189
Ti   6.049089666   -6.049083608   4.006629876
O   -6.049065735   6.0490633   6.068325669
O   -6.049067728   6.04906797   2.019993956
O   -6.049067776   6.049068268   -2.019934304
Ti   6.04910061   -6.049104849   7.944698769
Ti   -6.049076188   6.049072072   -4.01009309
Ti   6.049109613   -6.049106563   -7.946173175
Ti   -6.04908752   6.049084403   4.006634895
Ti   6.049129674   -6.049121899   -0.00002140443434
Ti   -6.049106301   6.049095707   7.94468657
Ti   -6.049123238   6.04911609   -7.946191427
Ti   -6.049128525   6.049122246   -0.00002069104729
O   -6.049049877   -6.049074282   -6.065076929
O   -6.049065848   -6.049063634   6.068325847
O   -6.049068002   -6.049068825   -2.019934344
O   -6.049068014   -6.049068833   2.019994425
Ti   -6.049075118   -6.049066952   -4.01005582
Ti   -6.04908727   -6.049083399   4.006635338
Ti   -6.049104474   -6.049100526   7.944691393
Ti   -6.049122256   -6.049105733   -7.946173423
Ti   -6.049128299   -6.049121677   -0.00002061845844
Ba   8.065427217   4.032702809   -6.152217859
Ba   8.065438156   4.032748043   6.150082567
Ba   8.065438099   4.032757935   -2.030291236
Ba   8.06544558   4.032798041   2.030053959
Ba   4.032802198   8.065430861   6.150093065
Ba   4.032803416   8.06543345   -2.030325622
Ba   8.065426415   -4.032700178   -6.152185365
Ba   4.03287511   8.065436398   2.030125399
Ba   8.065441015   -4.032748003   6.150080156
Ba   8.065437862   -4.032758028   -2.030288214
Ba   4.03280989   8.065529448   -6.152212715
Ba   8.065443644   -4.03279921   2.030051045
Ba   -4.032791955   8.065434627   6.150078918
Ba   -4.032803473   8.065434022   -2.030324995
Ba   -4.032875259   8.065435498   2.030123099
Ba   -8.065427456   4.032702809   -6.152217859
Ba   -8.065416516   4.032748043   6.150082567
Ba   -8.065416573   4.032757935   -2.030291236
Ba   -8.065409092   4.032798041   2.030053959
Ba   -4.032813165   8.065528142   -6.152218495
Ba   -8.065428257   -4.032700178   -6.152185365
Ba   -8.065413657   -4.032748003   6.150080156
Ba   -8.065416811   -4.032758028   -2.030288214
Ba   -8.065411028   -4.03279921   2.030051045
O   8.065427025   6.04906091   -8.053933951
O   8.065427546   6.049065985   -0.00000688061606
O   6.049061892   8.065426836   8.0553668
O   8.065431881   6.049066361   8.055368567
O   8.065430013   6.049069121   -4.027256889
O   8.065427336   6.049073023   4.028569873
O   6.049065893   8.065427336   -0.000006944332936
O   6.049072809   8.065427336   4.028569349
O   6.04907329   8.06542932   -4.027259896
O   6.049061047   8.065451041   -8.05392653
O   10.08178332   0   4.028580291
O   10.0817876   0.000003027761422   8.054850839
O   10.08178829   0.0000007658123256   0.000001611875653
O   10.08179403   -0.000004338393364   -4.027278236
O   10.08180004   -0.00001715193777   -8.053955697
O   8.065426776   -6.049066449   -0.000006778588405
O   8.065431369   -6.049067393   8.055366014
O   8.065427336   -6.049073152   4.028569693
O   8.065429443   -6.049071977   -8.053896229
O   8.065429247   -6.04908223   -4.027256837
O   -6.049060392   8.065428651   8.054835442
O   -6.049066034   8.065427336   -0.000006825771155
O   -6.049073297   8.065426538   4.028569516
O   -6.049071097   8.065429654   -4.02725945
O   -6.049059758   8.065451446   -8.053925052
O   -8.065422791   6.049066361   8.055368567
O   -8.065427648   6.04906091   -8.053933951
O   -8.065424659   6.049069121   -4.027256889
O   -8.065427126   6.049065985   -0.00000688061606
O   -8.065427336   6.049073023   4.028569873
O   -10.08178273   0   4.028580199
O   -10.08178659   0.000002296227163   8.05484904
O   -10.0817881   0.0000007008856355   0.000001563483089
O   -10.08179066   -0.000005376817134   -4.027277466
O   -10.08179731   -0.00001552191491   -8.053951513
O   -8.065423303   -6.049067393   8.055366014
O   -8.065427897   -6.049066449   -0.000006778588405
O   -8.065425229   -6.049071977   -8.053896229
O   -8.065427336   -6.049073152   4.028569693
O   -8.065425425   -6.04908223   -4.027256837
Ti   10.08174396   2.016365007   -7.946254582
Ti   10.08175418   2.016392151   -0.00002171737292
Ti   10.0817682   2.016365654   7.944674283
Ti   10.08177878   2.016364912   4.006652922
O   10.08179027   2.016356098   2.019994066
O   10.08178977   2.016365337   6.068309018
O   10.0817939   2.016363146   -2.019942129
Ti   10.08180377   2.016347935   -4.010123771
Ti   10.08175431   -2.016396301   -0.00002133708802
O   10.08180468   2.016374675   -6.065056443
Ti   10.08176402   -2.016386849   -7.946236836
Ti   10.08176883   -2.016370238   7.944675787
Ti   10.08177763   -2.016369095   4.006654254
O   10.0817893   -2.016367091   6.068307486
O   10.08179197   -2.016356032   2.019994736
O   10.08179075   -2.016363435   -2.019940286
O   10.08180448   -2.016344996   -6.065085251
Ti   10.08180505   -2.016362901   -4.010084807
Ti   -10.08175478   2.016391507   -0.00002081162543
Ti   -10.08176081   2.016368412   -7.946250224
Ti   -10.08177581   2.016365993   7.944675138
Ti   -10.08177925   2.016363781   4.00665438
O   -10.08179078   2.016356379   2.019993838
O   -10.08178991   2.016365498   6.068309401
O   -10.08179448   2.016363388   -2.019941404
Ti   -10.08175359   -2.016394967   -0.00002061240937
O   -10.08180161   2.016375553   -6.065058119
Ti   -10.08180849   2.016347523   -4.01011692
Ti   -10.08177414   -2.016369563   7.944674762
Ti   -10.08177747   -2.016366884   4.006656462
Ti   -10.08177393   -2.016386006   -7.94623792
O   -10.0817893   -2.016366969   6.068310119
O   -10.08179247   -2.016356364   2.019994893
O   -10.08179116   -2.01636374   -2.01993924
O   -10.08180154   -2.016345649   -6.065085673
Ti   -10.08180896   -2.016362792   -4.01007956
O   10.08178886   4.032701364   -0.000005169938922
O   10.0817942   4.032698637   -8.053975627
O   10.0817937   4.032703295   8.054836402
O   10.08179203   4.032709446   4.02857678
O   10.08178321   4.032739536   -4.027266298
O   10.08178905   -4.032701392   -0.000005080009408
O   10.08179405   -4.032701414   8.054836442
O   10.08178123   -4.032735654   -4.027259785
O   10.08179549   -4.032700136   -8.05389601
O   10.08179224   -4.032708493   4.028576633
O   -10.08178908   4.032701438   -0.000005174778179
O   -10.08179317   4.032700696   -8.053969875
O   -10.08179348   4.032704436   8.054839575
O   -10.08179265   4.032710117   4.028576906
O   -10.08178102   4.032739565   -4.027266933
O   -10.08178943   -4.03270094   -0.000004807397964
O   -10.0817794   -4.032735913   -4.027259322
O   -10.08179264   -4.032703647   -8.05389414
O   -10.08179399   -4.032701833   8.05483599
O   -10.08179268   -4.032709032   4.028576826
Ba   8.065428046   8.065432389   6.150092302
Ba   8.065437511   8.065433643   -2.030287718
Ba   8.065444592   8.065436942   2.030030863
Ba   8.065426001   8.065526174   -6.152196591
Ba   -8.06541008   8.065436942   2.030030863
Ba   -8.065417162   8.065433643   -2.030287718
Ba   -8.065426626   8.065432389   6.150092302
Ba   -8.065428672   8.065526174   -6.152196591
Ti   10.08172615   6.049122246   -0.00002069104729
Ti   10.08173143   6.04911609   -7.946191427
Ti   10.08174837   6.049095707   7.94468657
Ti   10.08176715   6.049084403   4.006634895
Ti   10.08177848   6.049072072   -4.01009309
O   10.08178894   6.0490633   6.068325669
O   10.08178694   6.04906797   2.019993956
O   10.0817869   6.049068268   -2.019934304
O   10.08180549   6.049043021   -6.065047189
Ti   10.08173242   -6.049105733   -7.946173423
Ti   10.08172637   -6.049121677   -0.00002061845844
Ti   10.0817502   -6.049100526   7.944691393
Ti   10.0817674   -6.049083399   4.006635338
Ti   10.08177955   -6.049066952   -4.01005582
O   10.08178882   -6.049063634   6.068325847
O   10.08178666   -6.049068833   2.019994425
O   10.08178667   -6.049068825   -2.019934344
O   10.0818048   -6.049074282   -6.065076929
Ti   -10.08172541   6.04912179   -0.00002180326972
Ti   -10.08174048   6.049114434   -7.946188558
Ti   -10.08175386   6.049100743   7.944705383
Ti   -10.08176506   6.049083443   4.006631823
Ti   -10.08178258   6.049072475   -4.010087451
O   -10.08178867   6.049064046   6.06832479
O   -10.0817873   6.049068252   -2.019933775
O   -10.08178736   6.049068187   2.019993885
O   -10.0818034   6.049043974   -6.065053048
Ti   -10.081725   -6.049121899   -0.00002140443434
Ti   -10.08174506   -6.049106563   -7.946173175
Ti   -10.08176501   -6.049083608   4.006629876
Ti   -10.08175406   -6.049104849   7.944698769
Ti   -10.08178356   -6.049066011   -4.01005346
O   -10.08178936   -6.049064885   6.068325302
O   -10.08178744   -6.049068736   2.019994415
O   -10.08178746   -6.0490688   -2.019934549
O   -10.08180203   -6.049074751   -6.065078461
Ba   12.09796134   -0.00000725807806   2.030128854
Ba   12.09803956   -0.000002866049604   -2.030326939
Ba   12.09804076   -0.000000277047429   6.150076934
Ba   12.0980441   -0.0001094466391   -6.152197118
Ba   -12.09796458   -0.00001178116971   2.030133288
Ba   -12.0980443   -0.000007533512403   -2.030328874
Ba   -12.0980482   -0.000113864477   -6.152186285
Ba   -12.09805072   -0.000007450438502   6.150080148
O   12.09811388   2.016370744   -4.027267685
O   12.09813765   2.016357643   4.028573675
O   12.09814   2.016353911   -8.053981855
O   12.09815105   2.016360483   8.054845024
O   12.09811692   -2.016361866   -4.0272669
O   12.09816081   2.016360081   0.00000476787737
O   12.09813295   -2.01635141   -8.053944022
O   12.09813867   -2.016358352   4.028573794
O   12.0981523   -2.01636029   8.054848851
O   12.09816283   -2.016359841   0.000002552707752
O   -12.0981119   2.016370968   -4.027267546
O   -12.0981332   2.016351909   -8.053979296
O   -12.09813677   2.016358323   4.028573917
O   -12.09814664   2.016361999   8.054843064
O   -12.09811637   -2.0163611   -4.027266677
O   -12.09815969   2.016360029   0.00000475013343
O   -12.09813105   -2.016350099   -8.053942091
O   -12.09813758   -2.016357541   4.028573754
O   -12.09814873   -2.016359286   8.054843616
O   -12.09816198   -2.016358403   0.000002533753998
Ba   12.09798137   4.032786205   2.030152403
Ba   12.09803723   4.032731739   -6.152231157
Ba   12.09804808   4.032748862   6.150081479
Ba   12.0980466   4.032755846   -2.030337071
Ba   12.09798221   -4.032787132   2.030149687
Ba   12.09802607   -4.03271835   -6.152210621
Ba   12.09804571   -4.032752471   6.15007795
Ba   12.0980475   -4.032756588   -2.030332671
Ba   -12.0979815   4.032787971   2.030155943
Ba   -12.09804224   4.032733786   -6.152219368
Ba   -12.09804975   4.032747745   6.150084943
Ba   -12.09804682   4.032757451   -2.030336764
Ba   -12.09798198   -4.03278741   2.03015321
Ba   -12.09803062   -4.032717992   -6.152209632
Ba   -12.09804999   -4.032746228   6.150080547
Ba   -12.09804852   -4.032757637   -2.030334506
O   10.08178138   8.065426538   4.028569516
O   10.08178357   8.065429654   -4.02725945
O   10.08178864   8.065427336   -0.000006825771155
O   10.08179428   8.065428651   8.054835442
O   10.08179491   8.065451446   -8.053925052
O   -10.08178186   8.065427336   4.028569349
O   -10.08178138   8.06542932   -4.027259896
O   -10.08178878   8.065427336   -0.000006944332936
O   -10.08179278   8.065426836   8.0553668
O   -10.08179362   8.065451041   -8.05392653
O   12.09811028   6.049070623   -4.027264329
O   12.09813673   6.049058347   -8.053963683
O   12.09814621   6.049061872   4.028575591
O   12.09815026   6.049063957   8.054843144
O   12.09815495   6.049065239   -0.000004623102949
O   12.09811016   -6.049084518   -4.027263904
O   12.09812827   -6.049070824   -8.053931144
O   12.09814613   -6.049062255   4.028575449
O   12.09814927   -6.049063316   8.054847052
O   12.09815456   -6.049065981   -0.000004572290757
O   -12.09810797   6.049071035   -4.027264911
O   -12.09812973   6.049058252   -8.053963659
O   -12.09814531   6.049062009   4.028575658
O   -12.09815092   6.049062292   8.054839628
O   -12.09815413   6.049065772   -0.000005353024123
O   -12.0981074   -6.049084546   -4.027264206
O   -12.0981192   -6.049071253   -8.053926115
O   -12.09814482   -6.04906257   4.028575557
O   -12.09815056   -6.049062525   8.054841729
O   -12.09815426   -6.049066296   -0.000005172761822
O   14.11449243   -0.0000007133870479   -0.000006943123122
O   14.11449272   0.000002628522769   4.028578668
O   14.1144959   -0.000004228300281   -8.053971017
O   14.11449924   -0.000002713613027   -4.027268798
O   14.11450246   0.000005719194524   8.054845463
O   -14.11449179   0.00000007339538876   4.028576083
O   -14.11449249   -0.0000006016808793   -0.000006330553916
O   -14.11449759   -0.00001286919586   -8.053959293
O   -14.11449986   0.000004266207789   8.054840652
O   -14.11450605   -0.000006703176659   -4.027270047
Ti   14.1144328   2.016337073   -7.946378733
O   14.11445552   2.016365622   -6.065030523
Ti   14.11448722   2.016349167   4.006667475
Ti   14.1144857   2.016366991   -0.000005389318546
O   14.11448791   2.016366257   6.068290589
Ti   14.11449218   2.01635439   7.944677105
O   14.11449813   2.016360254   -2.019946527
O   14.11450107   2.016354312   2.019993088
Ti   14.11451142   2.016339695   -4.010133798
O   14.11448544   -2.016368104   6.068295029
Ti   14.11448684   -2.016370365   -0.000005258658623
Ti   14.11449172   -2.016356746   4.006668217
Ti   14.11449234   -2.016360462   7.944679235
Ti   14.11449153   -2.016375637   -7.946242821
O   14.11449368   -2.016361835   -2.019946731
O   14.11450101   -2.016345204   -6.065050421
O   14.11450061   -2.016354935   2.019993943
Ti   14.11451106   -2.016351158   -4.010094036
Ti   -14.1144424   2.016350333   -7.946439921
O   -14.11445395   2.016362594   -6.065036849
O   -14.11448723   2.016369547   6.068294134
Ti   -14.11448857   2.016367427   -0.000005046537884
O   -14.11449193   2.016363581   -2.019946439
Ti   -14.11449361   2.01635442   4.006668073
O   -14.11449478   2.016360388   2.019995523
Ti   -14.11449729   2.016354124   7.944680279
Ti   -14.11451545   2.016344771   -4.010135893
O   -14.11448857   -2.016366379   6.068292141
Ti   -14.11448892   -2.016371087   -0.000005103802418
O   -14.11449564   -2.01635709   -2.019946095
Ti   -14.11449887   -2.016360834   7.944677622
O   -14.11450123   -2.016354318   2.019993693
Ti   -14.11450006   -2.01636354   4.006668131
Ti   -14.11450027   -2.016370087   -7.946242637
O   -14.11450551   -2.016341389   -6.0650518
Ti   -14.11451693   -2.016353306   -4.010090923
Ba   12.09797941   8.065435498   2.030123099
Ba   12.0980512   8.065434022   -2.030324995
Ba   12.09806272   8.065434627   6.150078918
Ba   12.09804151   8.065528142   -6.152218495
Ba   -12.09797956   8.065436398   2.030125399
Ba   -12.09805247   8.065430861   6.150093065
Ba   -12.09805126   8.06543345   -2.030325622
Ba   -12.09804478   8.065529448   -6.152212715
O   14.11449642   4.032693755   0.00000247850582
O   14.11448832   4.032731959   -4.027266256
O   14.11449656   4.032708764   8.054844919
O   14.1144966   4.032718257   4.028574626
O   14.11452148   4.032702745   -8.054061652
O   14.11449522   -4.032693225   0.000002672076076
O   14.114488   -4.032728093   -4.027264373
O   14.11449771   -4.032696356   -8.053938267
O   14.11449633   -4.032704493   8.054847314
O   14.11449627   -4.032716269   4.028574927
O   -14.11449518   4.032696089   0.000004677544584
O   -14.11449602   4.032707784   8.054844649
O   -14.1144971   4.03271808   4.028575269
O   -14.11449342   4.032734401   -4.027267647
O   -14.11452   4.03271711   -8.054053974
O   -14.11449517   -4.032695022   0.000004873131197
O   -14.11449666   -4.032698222   -8.053929952
O   -14.1144957   -4.032703868   8.054845052
O   -14.11449732   -4.032717048   4.028575325
O   -14.11449452   -4.032728611   -4.027265646
Ti   14.11445219   6.049093718   -0.00002160002095
Ti   14.11447911   6.049071849   4.006661282
O   14.11448688   6.049064062   6.068307651
Ti   14.11447127   6.049101892   -7.946269711
Ti   14.1144841   6.04907768   7.944675025
Ti   14.11449795   6.049047099   -4.010137674
O   14.11449187   6.049064534   -2.019938256
O   14.11449808   6.049050446   -6.065047456
O   14.11449932   6.049063054   2.019993183
Ti   14.11445169   -6.049093198   -0.00002108141397
Ti   14.11447377   -6.049072116   -7.946242648
Ti   14.11447841   -6.049072752   4.006662769
Ti   14.11449676   -6.049039754   -4.010104507
O   14.11448707   -6.049064872   6.068308276
Ti   14.11448318   -6.049083036   7.944678501
O   14.1144921   -6.049064844   -2.019939448
O   14.1144995   -6.04906353   2.019993682
O   14.11450067   -6.049078387   -6.065066894
Ti   -14.11445568   6.049092932   -0.00002239204591
Ti   -14.11448574   6.049069288   4.006661508
O   -14.11448915   6.049064211   6.068309914
O   -14.11449211   6.04906088   -2.019940182
Ti   -14.11447612   6.049099863   -7.946275272
Ti   -14.11448656   6.049076793   7.944677001
Ti   -14.11450394   6.049047881   -4.010134188
O   -14.11450322   6.049051519   -6.065047318
O   -14.11449932   6.049064739   2.019993361
Ti   -14.11445529   -6.049093827   -0.00002263804145
Ti   -14.11448331   -6.049071852   -7.9462457
Ti   -14.11448585   -6.049070627   4.006661629
O   -14.11448892   -6.049064739   6.068308321
O   -14.11449244   -6.049061328   -2.019941469
Ti   -14.11450211   -6.049041896   -4.0101028
Ti   -14.11448621   -6.049084399   7.94467992
O   -14.11449951   -6.049065328   2.019993271
O   -14.11450637   -6.049079397   -6.065066711
Ba   16.13084394   -0.000005465940106   -2.0302763
Ba   16.13085315   -0.000002895891685   2.030354782
Ba   16.13085404   -0.00007065717618   -6.152207661
Ba   16.13085429   -0.000004686013282   6.150077567
O   16.13078854   2.016027559   -8.052660324
O   14.11449932   8.065427592   -4.027276431
O   14.11450143   8.065426526   4.028572932
O   14.11450242   8.065427336   0.00000174374539
O   14.11450488   8.065428784   8.054842636
O   16.13084857   2.016358194   -4.027274765
O   14.11450979   8.06544643   -8.053974731
O   16.13085325   2.016363405   -0.00000575347259
O   16.13085413   2.01636435   4.028576219
O   16.13086102   2.016357245   8.054850355
O   16.13085256   -2.016346362   -4.027278003
O   16.13085381   -2.016363467   -0.000005752666048
O   16.13085748   -2.016361879   4.028579027
O   16.13086061   -2.016349011   -8.053954635
O   16.13086297   -2.016353614   8.054847088
O   -14.11449714   8.06542844   -4.027270339
O   -14.11450308   8.065426691   0.000002022002633
O   -14.11450271   8.065427336   4.028573584
O   -14.11450422   8.065428631   8.054841306
O   -14.1145107   8.065444839   -8.053975822
H   -16.06406731   2.995899413   -11.11938568
Ba   16.13085647   4.032675878   -6.15224431
Ba   16.13084372   4.032752656   6.150076014
Ba   16.13084934   4.032730476   2.030360395
Ba   16.13084231   4.03276546   -2.030296069
Ba   16.13085162   -4.03273286   2.030358138
Ba   16.13085911   -4.032705135   -6.152201946
Ba   16.13084777   -4.032758492   6.150073643
Ba   16.13084692   -4.032771082   -2.030292302
O   16.13084924   6.049057425   -4.027283502
O   16.13085579   6.049049852   -8.054032142
O   16.13085467   6.049067897   0.000001854645016
O   16.13085412   6.049071688   4.028580477
O   16.13085736   6.049068954   8.054851262
O   16.13084955   -6.049072447   -4.027282813
O   16.13085467   -6.049067324   0.00000171430658
O   16.13085526   -6.049066366   -8.053976559
O   16.13085392   -6.049071595   4.028580441
O   16.13085644   -6.049068792   8.054853509
Ba   16.13084435   8.065435087   -2.03028109
Ba   16.13084535   8.065434184   6.150068642
Ba   16.13084939   8.065433063   2.03035702
Ba   16.13085539   8.065522788   -6.152202823

