216
Jmol slab visualization for 9x1x1 top 4 free layer relax simulation
Ba     0.000000000     0.000000000     2.031467231
Ba     0.000000000     0.000000000     6.154482055
Ba     0.000032498     -0.017371119     -1.974194509
Ba     0.000056587     -0.060582393     -6.001942699
H     0.000022641     -0.987985933     -8.881051368
O     0.000008161     -1.922775356     -8.574386915
O     0.000066396     1.971367791     -4.139525807
O     2.016356834     0.000000000     0.000000991
O     2.016356834     0.000000000     4.027872504
O     2.016356834     0.000000000     8.053888750
O     2.016356774     -0.008940482     -8.268915692
O     0.000000000     2.016356834     0.000000991
O     0.000000000     2.016356834     4.027872504
O     0.000000000     2.016356834     8.053888750
O     0.000000000     -2.016356834     0.000000991
O     0.000000000     -2.016356834     4.027872504
O     0.000000000     -2.016356834     8.053888750
O     -2.016356834     0.000000000     0.000000991
O     -2.016356834     0.000000000     4.027872504
O     -2.016356834     0.000000000     8.053888750
O     -2.016356894     -0.008940482     -8.268915692
O     2.016415595     -0.044204077     -4.106997818
O     -2.016298073     -0.044204077     -4.106997818
O     0.000066396     -2.061345877     -4.139525807
O     0.000008161     2.109938312     -8.574386915
Ti     2.016374195     1.887963071     -8.089260574
Ti     -2.016339473     1.887963071     -8.089260574
O     2.016423540     1.964902028     -6.289935920
O     -2.016290128     1.964902028     -6.289935920
Ti     2.016405504     1.978845390     -3.952698250
Ti     -2.016308164     1.978845390     -3.952698250
O     2.016406848     1.992311447     -2.076063738
O     -2.016306820     1.992311447     -2.076063738
Ti     2.016356834     2.016356834     0.000000000
O     2.016356834     2.016356834     2.018619954
Ti     2.016356834     2.016356834     4.010838971
O     2.016356834     2.016356834     6.065608221
Ti     2.016356834     2.016356834     7.946455662
Ti     2.016356834     -2.016356834     0.000000000
O     2.016356834     -2.016356834     2.018619954
Ti     2.016356834     -2.016356834     4.010838971
O     2.016356834     -2.016356834     6.065608221
Ti     2.016356834     -2.016356834     7.946455662
Ti     -2.016356834     2.016356834     0.000000000
O     -2.016356834     2.016356834     2.018619954
Ti     -2.016356834     2.016356834     4.010838971
O     -2.016356834     2.016356834     6.065608221
Ti     -2.016356834     2.016356834     7.946455662
Ti     -2.016356834     -2.016356834     0.000000000
O     -2.016356834     -2.016356834     2.018619954
Ti     -2.016356834     -2.016356834     4.010838971
O     -2.016356834     -2.016356834     6.065608221
Ti     -2.016356834     -2.016356834     7.946455662
O     2.016406848     -2.040402222     -2.076063738
O     -2.016306820     -2.040402222     -2.076063738
Ti     2.016405504     -2.053868278     -3.952698250
Ti     -2.016308164     -2.053868278     -3.952698250
O     2.016423540     -2.067811640     -6.289935920
O     -2.016290128     -2.067811640     -6.289935920
Ti     2.016374195     -2.144750597     -8.089260574
Ti     -2.016339473     -2.144750597     -8.089260574
H     0.000022641     3.044727735     -8.881051368
Ba     0.000056587     3.972131275     -6.001942699
Ba     0.000032498     4.015342550     -1.974194509
Ba     4.032713668     0.000000000     2.031467231
Ba     4.032713668     0.000000000     6.154482055
Ba     0.000000000     4.032713668     2.031467231
Ba     0.000000000     4.032713668     6.154482055
Ba     4.032746166     -0.017371119     -1.974194509
Ba     0.000000000     -4.032713668     2.031467231
Ba     0.000000000     -4.032713668     6.154482055
Ba     -4.032713668     0.000000000     2.031467231
Ba     -4.032713668     0.000000000     6.154482055
Ba     -4.032681170     -0.017371119     -1.974194509
Ba     4.032770255     -0.060582393     -6.001942699
Ba     -4.032657081     -0.060582393     -6.001942699
Ba     0.000032498     -4.050084787     -1.974194509
Ba     0.000056587     -4.093296061     -6.001942699
H     4.032736309     -0.987985933     -8.881051368
H     -4.032691027     -0.987985933     -8.881051368
O     4.032721829     -1.922775356     -8.574386915
O     -4.032705507     -1.922775356     -8.574386915
O     2.016415595     3.988509591     -4.106997818
O     -2.016298073     3.988509591     -4.106997818
O     4.032780064     1.971367791     -4.139525807
O     -4.032647272     1.971367791     -4.139525807
O     2.016356774     4.023773186     -8.268915692
O     -2.016356894     4.023773186     -8.268915692
O     4.032713668     2.016356834     0.000000991
O     4.032713668     2.016356834     4.027872504
O     4.032713668     2.016356834     8.053888750
O     2.016356834     4.032713668     0.000000991
O     2.016356834     4.032713668     4.027872504
O     2.016356834     4.032713668     8.053888750
O     4.032713668     -2.016356834     0.000000991
O     4.032713668     -2.016356834     4.027872504
O     4.032713668     -2.016356834     8.053888750
O     -2.016356834     4.032713668     0.000000991
O     -2.016356834     4.032713668     4.027872504
O     -2.016356834     4.032713668     8.053888750
O     2.016356834     -4.032713668     0.000000991
O     2.016356834     -4.032713668     4.027872504
O     2.016356834     -4.032713668     8.053888750
O     -4.032713668     2.016356834     0.000000991
O     -4.032713668     2.016356834     4.027872504
O     -4.032713668     2.016356834     8.053888750
O     -2.016356834     -4.032713668     0.000000991
O     -2.016356834     -4.032713668     4.027872504
O     -2.016356834     -4.032713668     8.053888750
O     -4.032713668     -2.016356834     0.000000991
O     -4.032713668     -2.016356834     4.027872504
O     -4.032713668     -2.016356834     8.053888750
O     2.016356774     -4.041654150     -8.268915692
O     -2.016356894     -4.041654150     -8.268915692
O     4.032780064     -2.061345877     -4.139525807
O     -4.032647272     -2.061345877     -4.139525807
O     2.016415595     -4.076917745     -4.106997818
O     -2.016298073     -4.076917745     -4.106997818
O     4.032721829     2.109938312     -8.574386915
O     -4.032705507     2.109938312     -8.574386915
H     0.000022641     -5.020699601     -8.881051368
H     4.032736309     3.044727735     -8.881051368
H     -4.032691027     3.044727735     -8.881051368
Ba     4.032770255     3.972131275     -6.001942699
Ba     -4.032657081     3.972131275     -6.001942699
Ba     4.032746166     4.015342550     -1.974194509
Ba     -4.032681170     4.015342550     -1.974194509
Ba     4.032713668     4.032713668     2.031467231
Ba     4.032713668     4.032713668     6.154482055
Ba     4.032713668     -4.032713668     2.031467231
Ba     4.032713668     -4.032713668     6.154482055
Ba     -4.032713668     4.032713668     2.031467231
Ba     -4.032713668     4.032713668     6.154482055
Ba     -4.032713668     -4.032713668     2.031467231
Ba     -4.032713668     -4.032713668     6.154482055
Ba     4.032746166     -4.050084787     -1.974194509
Ba     -4.032681170     -4.050084787     -1.974194509
Ba     4.032770255     -4.093296061     -6.001942699
Ba     -4.032657081     -4.093296061     -6.001942699
O     0.000008161     -5.955489024     -8.574386915
O     0.000066396     6.004081459     -4.139525807
O     6.049070502     0.000000000     0.000000991
O     6.049070502     0.000000000     4.027872504
O     6.049070502     0.000000000     8.053888750
O     6.049070442     -0.008940482     -8.268915692
O     0.000000000     6.049070502     0.000000991
O     0.000000000     6.049070502     4.027872504
O     0.000000000     6.049070502     8.053888750
O     6.049129263     -0.044204077     -4.106997818
Ti     2.016374195     5.920676739     -8.089260574
Ti     -2.016339473     5.920676739     -8.089260574
O     2.016423540     5.997615696     -6.289935920
O     -2.016290128     5.997615696     -6.289935920
Ti     6.049087863     1.887963071     -8.089260574
Ti     2.016405504     6.011559058     -3.952698250
Ti     -2.016308164     6.011559058     -3.952698250
O     2.016406848     6.025025115     -2.076063738
O     -2.016306820     6.025025115     -2.076063738
O     6.049137208     1.964902028     -6.289935920
Ti     6.049119173     1.978845390     -3.952698250
O     6.049120516     1.992311447     -2.076063738
Ti     6.049070502     2.016356834     0.000000000
O     6.049070502     2.016356834     2.018619954
Ti     6.049070502     2.016356834     4.010838971
O     6.049070502     2.016356834     6.065608221
Ti     6.049070502     2.016356834     7.946455662
Ti     2.016356834     6.049070502     0.000000000
O     2.016356834     6.049070502     2.018619954
Ti     2.016356834     6.049070502     4.010838971
O     2.016356834     6.049070502     6.065608221
Ti     2.016356834     6.049070502     7.946455662
Ti     6.049070502     -2.016356834     0.000000000
O     6.049070502     -2.016356834     2.018619954
Ti     6.049070502     -2.016356834     4.010838971
O     6.049070502     -2.016356834     6.065608221
Ti     6.049070502     -2.016356834     7.946455662
Ti     -2.016356834     6.049070502     0.000000000
O     -2.016356834     6.049070502     2.018619954
Ti     -2.016356834     6.049070502     4.010838971
O     -2.016356834     6.049070502     6.065608221
Ti     -2.016356834     6.049070502     7.946455662
O     6.049120516     -2.040402222     -2.076063738
Ti     6.049119173     -2.053868278     -3.952698250
O     6.049137208     -2.067811640     -6.289935920
Ti     6.049087863     -2.144750597     -8.089260574
H     4.032736309     -5.020699601     -8.881051368
H     -4.032691027     -5.020699601     -8.881051368
O     4.032721829     -5.955489024     -8.574386915
O     -4.032705507     -5.955489024     -8.574386915
O     4.032780064     6.004081459     -4.139525807
O     -4.032647272     6.004081459     -4.139525807
O     6.049129263     3.988509591     -4.106997818
O     6.049070442     4.023773186     -8.268915692
O     6.049070502     4.032713668     0.000000991
O     6.049070502     4.032713668     4.027872504
O     6.049070502     4.032713668     8.053888750
O     4.032713668     6.049070502     0.000000991
O     4.032713668     6.049070502     4.027872504
O     4.032713668     6.049070502     8.053888750
O     6.049070502     -4.032713668     0.000000991
O     6.049070502     -4.032713668     4.027872504
O     6.049070502     -4.032713668     8.053888750
O     -4.032713668     6.049070502     0.000000991
O     -4.032713668     6.049070502     4.027872504
O     -4.032713668     6.049070502     8.053888750
O     6.049070442     -4.041654150     -8.268915692
O     6.049129263     -4.076917745     -4.106997818
Ti     6.049087863     5.920676739     -8.089260574
O     6.049137208     5.997615696     -6.289935920
Ti     6.049119173     6.011559058     -3.952698250
O     6.049120516     6.025025115     -2.076063738
Ti     6.049070502     6.049070502     0.000000000
O     6.049070502     6.049070502     2.018619954
Ti     6.049070502     6.049070502     4.010838971
O     6.049070502     6.049070502     6.065608221
Ti     6.049070502     6.049070502     7.946455662