600
9x1x1 with H; top 2 free; slab visualization 
Ba   0   0   -2.03146445
Ba   0   0   2.031467231
Ba   0   0   6.154482055
Ba   0.000008083171276   -0.00003796557956   -5.993277064
O   2.016354744   0.0001629385696   -8.165028397
O   2.016356834   0   -4.027872779
O   2.016356834   0   0.0000009908377482
O   2.016356834   0   4.027872504
O   2.016356834   0   8.05388875
O   0   2.016356834   -4.027872779
O   0   2.016356834   0.0000009908377482
O   0   2.016356834   4.027872504
O   0   2.016356834   8.05388875
O   -0.000004637620718   2.016398432   -8.335237621
H   -0.000012046119   2.016413063   -9.312718211
H   -0.000012046119   -2.016300606   -9.312718211
O   -0.000004637620718   -2.016315236   -8.335237621
O   0   -2.016356834   -4.027872779
O   0   -2.016356834   0.0000009908377482
O   0   -2.016356834   4.027872504
O   0   -2.016356834   8.05388875
O   -2.016356834   0   -4.027872779
O   -2.016356834   0   0.0000009908377482
O   -2.016356834   0   4.027872504
O   -2.016356834   0   8.05388875
O   -2.016358924   0.0001629385696   -8.165028397
Ti   2.016357553   2.016029754   -7.97272912
Ti   -2.016356115   2.016029754   -7.97272912
Ti   2.016356834   2.016356834   -4.010838933
O   2.016356834   2.016356834   -2.018618491
Ti   2.016356834   2.016356834   0
O   2.016356834   2.016356834   2.018619954
Ti   2.016356834   2.016356834   4.010838971
O   2.016356834   2.016356834   6.065608221
Ti   2.016356834   2.016356834   7.946455662
O   2.016365711   2.016381548   -6.131651791
O   2.016365711   -2.01633212   -6.131651791
Ti   2.016356834   -2.016356834   -4.010838933
O   2.016356834   -2.016356834   -2.018618491
Ti   2.016356834   -2.016356834   0
O   2.016356834   -2.016356834   2.018619954
Ti   2.016356834   -2.016356834   4.010838971
O   2.016356834   -2.016356834   6.065608221
Ti   2.016356834   -2.016356834   7.946455662
Ti   -2.016356834   2.016356834   -4.010838933
O   -2.016356834   2.016356834   -2.018618491
Ti   -2.016356834   2.016356834   0
O   -2.016356834   2.016356834   2.018619954
Ti   -2.016356834   2.016356834   4.010838971
O   -2.016356834   2.016356834   6.065608221
Ti   -2.016356834   2.016356834   7.946455662
O   -2.016347957   2.016381548   -6.131651791
O   -2.016347957   -2.01633212   -6.131651791
Ti   -2.016356834   -2.016356834   -4.010838933
O   -2.016356834   -2.016356834   -2.018618491
Ti   -2.016356834   -2.016356834   0
O   -2.016356834   -2.016356834   2.018619954
Ti   -2.016356834   -2.016356834   4.010838971
O   -2.016356834   -2.016356834   6.065608221
Ti   -2.016356834   -2.016356834   7.946455662
Ti   2.016357553   -2.016683914   -7.97272912
Ti   -2.016356115   -2.016683914   -7.97272912
Ba   0.000008083171276   4.032675703   -5.993277064
Ba   4.032713668   0   -2.03146445
Ba   4.032713668   0   2.031467231
Ba   4.032713668   0   6.154482055
Ba   4.032721751   -0.00003796557956   -5.993277064
Ba   0   4.032713668   -2.03146445
Ba   0   4.032713668   2.031467231
Ba   0   4.032713668   6.154482055
Ba   0   -4.032713668   -2.03146445
Ba   0   -4.032713668   2.031467231
Ba   0   -4.032713668   6.154482055
Ba   -4.032705585   -0.00003796557956   -5.993277064
Ba   -4.032713668   0   -2.03146445
Ba   -4.032713668   0   2.031467231
Ba   -4.032713668   0   6.154482055
Ba   0.000008083171276   -4.032751634   -5.993277064
O   4.032713668   2.016356834   -4.027872779
O   4.032713668   2.016356834   0.0000009908377482
O   4.032713668   2.016356834   4.027872504
O   4.032713668   2.016356834   8.05388875
H   4.032701622   2.016413063   -9.312718211
O   2.016356834   4.032713668   -4.027872779
O   2.016356834   4.032713668   0.0000009908377482
O   2.016356834   4.032713668   4.027872504
O   2.016356834   4.032713668   8.05388875
O   4.03270903   2.016398432   -8.335237621
H   4.032701622   -2.016300606   -9.312718211
O   2.016354744   -4.03255073   -8.165028397
O   4.03270903   -2.016315236   -8.335237621
O   4.032713668   -2.016356834   -4.027872779
O   4.032713668   -2.016356834   0.0000009908377482
O   4.032713668   -2.016356834   4.027872504
O   4.032713668   -2.016356834   8.05388875
O   -2.016356834   4.032713668   -4.027872779
O   -2.016356834   4.032713668   0.0000009908377482
O   -2.016356834   4.032713668   4.027872504
O   -2.016356834   4.032713668   8.05388875
O   2.016354744   4.032876607   -8.165028397
O   -2.016358924   -4.03255073   -8.165028397
O   2.016356834   -4.032713668   -4.027872779
O   2.016356834   -4.032713668   0.0000009908377482
O   2.016356834   -4.032713668   4.027872504
O   2.016356834   -4.032713668   8.05388875
O   -4.032713668   2.016356834   -4.027872779
O   -4.032713668   2.016356834   0.0000009908377482
O   -4.032713668   2.016356834   4.027872504
O   -4.032713668   2.016356834   8.05388875
O   -4.032718306   2.016398432   -8.335237621
O   -2.016358924   4.032876607   -8.165028397
H   -4.032725714   2.016413063   -9.312718211
O   -4.032718306   -2.016315236   -8.335237621
O   -2.016356834   -4.032713668   -4.027872779
O   -2.016356834   -4.032713668   0.0000009908377482
O   -2.016356834   -4.032713668   4.027872504
O   -2.016356834   -4.032713668   8.05388875
H   -4.032725714   -2.016300606   -9.312718211
O   -4.032713668   -2.016356834   -4.027872779
O   -4.032713668   -2.016356834   0.0000009908377482
O   -4.032713668   -2.016356834   4.027872504
O   -4.032713668   -2.016356834   8.05388875
Ba   4.032721751   4.032675703   -5.993277064
Ba   4.032713668   4.032713668   -2.03146445
Ba   4.032713668   4.032713668   2.031467231
Ba   4.032713668   4.032713668   6.154482055
Ba   4.032713668   -4.032713668   -2.03146445
Ba   4.032713668   -4.032713668   2.031467231
Ba   4.032713668   -4.032713668   6.154482055
Ba   -4.032705585   4.032675703   -5.993277064
Ba   4.032721751   -4.032751634   -5.993277064
Ba   -4.032713668   4.032713668   -2.03146445
Ba   -4.032713668   4.032713668   2.031467231
Ba   -4.032713668   4.032713668   6.154482055
Ba   -4.032713668   -4.032713668   -2.03146445
Ba   -4.032713668   -4.032713668   2.031467231
Ba   -4.032713668   -4.032713668   6.154482055
Ba   -4.032705585   -4.032751634   -5.993277064
O   6.049068412   0.0001629385696   -8.165028397
O   6.049070502   0   -4.027872779
O   6.049070502   0   0.0000009908377482
O   6.049070502   0   4.027872504
O   6.049070502   0   8.05388875
O   0   6.049070502   -4.027872779
O   0   6.049070502   0.0000009908377482
O   0   6.049070502   4.027872504
O   0   6.049070502   8.05388875
O   -0.000004637620718   6.0491121   -8.335237621
H   -0.000012046119   6.049126731   -9.312718211
H   -0.000012046119   -6.049014274   -9.312718211
O   -0.000004637620718   -6.049028904   -8.335237621
O   0   -6.049070502   -4.027872779
O   0   -6.049070502   0.0000009908377482
O   0   -6.049070502   4.027872504
O   0   -6.049070502   8.05388875
O   -6.049070502   0   -4.027872779
O   -6.049070502   0   0.0000009908377482
O   -6.049070502   0   4.027872504
O   -6.049070502   0   8.05388875
O   -6.049072592   0.0001629385696   -8.165028397
Ti   2.016357553   6.048743422   -7.97272912
Ti   -2.016356115   6.048743422   -7.97272912
Ti   6.049071221   2.016029754   -7.97272912
Ti   6.049070502   2.016356834   -4.010838933
O   6.049070502   2.016356834   -2.018618491
Ti   6.049070502   2.016356834   0
O   6.049070502   2.016356834   2.018619954
Ti   6.049070502   2.016356834   4.010838971
O   6.049070502   2.016356834   6.065608221
Ti   6.049070502   2.016356834   7.946455662
O   6.049079379   2.016381548   -6.131651791
Ti   2.016356834   6.049070502   -4.010838933
O   2.016356834   6.049070502   -2.018618491
Ti   2.016356834   6.049070502   0
O   2.016356834   6.049070502   2.018619954
Ti   2.016356834   6.049070502   4.010838971
O   2.016356834   6.049070502   6.065608221
Ti   2.016356834   6.049070502   7.946455662
O   2.016365711   6.049095216   -6.131651791
Ti   6.049070502   -2.016356834   -4.010838933
O   6.049070502   -2.016356834   -2.018618491
Ti   6.049070502   -2.016356834   0
O   6.049070502   -2.016356834   2.018619954
Ti   6.049070502   -2.016356834   4.010838971
O   6.049070502   -2.016356834   6.065608221
Ti   6.049070502   -2.016356834   7.946455662
O   6.049079379   -2.01633212   -6.131651791
Ti   -2.016356834   6.049070502   -4.010838933
O   -2.016356834   6.049070502   -2.018618491
Ti   -2.016356834   6.049070502   0
O   -2.016356834   6.049070502   2.018619954
Ti   -2.016356834   6.049070502   4.010838971
O   -2.016356834   6.049070502   6.065608221
Ti   -2.016356834   6.049070502   7.946455662
O   -2.016347957   6.049095216   -6.131651791
Ti   -6.049069783   2.016029754   -7.97272912
Ti   6.049071221   -2.016683914   -7.97272912
O   2.016365711   -6.049045788   -6.131651791
Ti   2.016356834   -6.049070502   -4.010838933
O   2.016356834   -6.049070502   -2.018618491
Ti   2.016356834   -6.049070502   0
O   2.016356834   -6.049070502   2.018619954
Ti   2.016356834   -6.049070502   4.010838971
O   2.016356834   -6.049070502   6.065608221
Ti   2.016356834   -6.049070502   7.946455662
O   -6.049061625   2.016381548   -6.131651791
Ti   -6.049070502   2.016356834   -4.010838933
O   -6.049070502   2.016356834   -2.018618491
Ti   -6.049070502   2.016356834   0
O   -6.049070502   2.016356834   2.018619954
Ti   -6.049070502   2.016356834   4.010838971
O   -6.049070502   2.016356834   6.065608221
Ti   -6.049070502   2.016356834   7.946455662
O   -2.016347957   -6.049045788   -6.131651791
Ti   -2.016356834   -6.049070502   -4.010838933
O   -2.016356834   -6.049070502   -2.018618491
Ti   -2.016356834   -6.049070502   0
O   -2.016356834   -6.049070502   2.018619954
Ti   -2.016356834   -6.049070502   4.010838971
O   -2.016356834   -6.049070502   6.065608221
Ti   -2.016356834   -6.049070502   7.946455662
O   -6.049061625   -2.01633212   -6.131651791
Ti   -6.049070502   -2.016356834   -4.010838933
O   -6.049070502   -2.016356834   -2.018618491
Ti   -6.049070502   -2.016356834   0
O   -6.049070502   -2.016356834   2.018619954
Ti   -6.049070502   -2.016356834   4.010838971
O   -6.049070502   -2.016356834   6.065608221
Ti   -6.049070502   -2.016356834   7.946455662
Ti   -6.049069783   -2.016683914   -7.97272912
Ti   2.016357553   -6.049397582   -7.97272912
Ti   -2.016356115   -6.049397582   -7.97272912
O   6.049070502   4.032713668   -4.027872779
O   6.049070502   4.032713668   0.0000009908377482
O   6.049070502   4.032713668   4.027872504
O   6.049070502   4.032713668   8.05388875
O   4.032713668   6.049070502   -4.027872779
O   4.032713668   6.049070502   0.0000009908377482
O   4.032713668   6.049070502   4.027872504
O   4.032713668   6.049070502   8.05388875
O   6.049068412   -4.03255073   -8.165028397
O   4.03270903   6.0491121   -8.335237621
H   4.032701622   6.049126731   -9.312718211
O   6.049068412   4.032876607   -8.165028397
O   6.049070502   -4.032713668   -4.027872779
O   6.049070502   -4.032713668   0.0000009908377482
O   6.049070502   -4.032713668   4.027872504
O   6.049070502   -4.032713668   8.05388875
H   4.032701622   -6.049014274   -9.312718211
O   4.03270903   -6.049028904   -8.335237621
O   -4.032713668   6.049070502   -4.027872779
O   -4.032713668   6.049070502   0.0000009908377482
O   -4.032713668   6.049070502   4.027872504
O   -4.032713668   6.049070502   8.05388875
O   4.032713668   -6.049070502   -4.027872779
O   4.032713668   -6.049070502   0.0000009908377482
O   4.032713668   -6.049070502   4.027872504
O   4.032713668   -6.049070502   8.05388875
O   -4.032718306   6.0491121   -8.335237621
H   -4.032725714   6.049126731   -9.312718211
O   -6.049070502   4.032713668   -4.027872779
O   -6.049070502   4.032713668   0.0000009908377482
O   -6.049070502   4.032713668   4.027872504
O   -6.049070502   4.032713668   8.05388875
O   -6.049072592   -4.03255073   -8.165028397
H   -4.032725714   -6.049014274   -9.312718211
O   -4.032718306   -6.049028904   -8.335237621
O   -6.049072592   4.032876607   -8.165028397
O   -4.032713668   -6.049070502   -4.027872779
O   -4.032713668   -6.049070502   0.0000009908377482
O   -4.032713668   -6.049070502   4.027872504
O   -4.032713668   -6.049070502   8.05388875
O   -6.049070502   -4.032713668   -4.027872779
O   -6.049070502   -4.032713668   0.0000009908377482
O   -6.049070502   -4.032713668   4.027872504
O   -6.049070502   -4.032713668   8.05388875
Ba   0.000008083171276   8.065389371   -5.993277064
Ba   8.065427336   0   -2.03146445
Ba   8.065427336   0   2.031467231
Ba   8.065427336   0   6.154482055
Ba   8.065435419   -0.00003796557956   -5.993277064
Ba   0   8.065427336   -2.03146445
Ba   0   8.065427336   2.031467231
Ba   0   8.065427336   6.154482055
Ba   0   -8.065427336   -2.03146445
Ba   0   -8.065427336   2.031467231
Ba   0   -8.065427336   6.154482055
Ba   -8.065419253   -0.00003796557956   -5.993277064
Ba   -8.065427336   0   -2.03146445
Ba   -8.065427336   0   2.031467231
Ba   -8.065427336   0   6.154482055
Ba   0.000008083171276   -8.065465302   -5.993277064
O   8.065427336   2.016356834   -4.027872779
O   8.065427336   2.016356834   0.0000009908377482
O   8.065427336   2.016356834   4.027872504
O   8.065427336   2.016356834   8.05388875
H   8.06541529   2.016413063   -9.312718211
O   8.065422699   2.016398432   -8.335237621
O   2.016356834   8.065427336   -4.027872779
O   2.016356834   8.065427336   0.0000009908377482
O   2.016356834   8.065427336   4.027872504
O   2.016356834   8.065427336   8.05388875
H   8.06541529   -2.016300606   -9.312718211
O   8.065422699   -2.016315236   -8.335237621
O   8.065427336   -2.016356834   -4.027872779
O   8.065427336   -2.016356834   0.0000009908377482
O   8.065427336   -2.016356834   4.027872504
O   8.065427336   -2.016356834   8.05388875
O   2.016354744   -8.065264398   -8.165028397
O   -2.016356834   8.065427336   -4.027872779
O   -2.016356834   8.065427336   0.0000009908377482
O   -2.016356834   8.065427336   4.027872504
O   -2.016356834   8.065427336   8.05388875
O   -2.016358924   -8.065264398   -8.165028397
O   2.016354744   8.065590275   -8.165028397
O   2.016356834   -8.065427336   -4.027872779
O   2.016356834   -8.065427336   0.0000009908377482
O   2.016356834   -8.065427336   4.027872504
O   2.016356834   -8.065427336   8.05388875
O   -2.016358924   8.065590275   -8.165028397
O   -8.065427336   2.016356834   -4.027872779
O   -8.065427336   2.016356834   0.0000009908377482
O   -8.065427336   2.016356834   4.027872504
O   -8.065427336   2.016356834   8.05388875
O   -8.065431974   2.016398432   -8.335237621
H   -8.065439382   2.016413063   -9.312718211
O   -2.016356834   -8.065427336   -4.027872779
O   -2.016356834   -8.065427336   0.0000009908377482
O   -2.016356834   -8.065427336   4.027872504
O   -2.016356834   -8.065427336   8.05388875
O   -8.065431974   -2.016315236   -8.335237621
H   -8.065439382   -2.016300606   -9.312718211
O   -8.065427336   -2.016356834   -4.027872779
O   -8.065427336   -2.016356834   0.0000009908377482
O   -8.065427336   -2.016356834   4.027872504
O   -8.065427336   -2.016356834   8.05388875
Ti   6.049071221   6.048743422   -7.97272912
Ti   -6.049069783   6.048743422   -7.97272912
Ti   6.049070502   6.049070502   -4.010838933
O   6.049070502   6.049070502   -2.018618491
Ti   6.049070502   6.049070502   0
O   6.049070502   6.049070502   2.018619954
Ti   6.049070502   6.049070502   4.010838971
O   6.049070502   6.049070502   6.065608221
Ti   6.049070502   6.049070502   7.946455662
O   6.049079379   6.049095216   -6.131651791
O   6.049079379   -6.049045788   -6.131651791
Ti   6.049070502   -6.049070502   -4.010838933
O   6.049070502   -6.049070502   -2.018618491
Ti   6.049070502   -6.049070502   0
O   6.049070502   -6.049070502   2.018619954
Ti   6.049070502   -6.049070502   4.010838971
O   6.049070502   -6.049070502   6.065608221
Ti   6.049070502   -6.049070502   7.946455662
Ti   -6.049070502   6.049070502   -4.010838933
O   -6.049070502   6.049070502   -2.018618491
Ti   -6.049070502   6.049070502   0
O   -6.049070502   6.049070502   2.018619954
Ti   -6.049070502   6.049070502   4.010838971
O   -6.049070502   6.049070502   6.065608221
Ti   -6.049070502   6.049070502   7.946455662
O   -6.049061625   6.049095216   -6.131651791
O   -6.049061625   -6.049045788   -6.131651791
Ti   -6.049070502   -6.049070502   -4.010838933
O   -6.049070502   -6.049070502   -2.018618491
Ti   -6.049070502   -6.049070502   0
O   -6.049070502   -6.049070502   2.018619954
Ti   -6.049070502   -6.049070502   4.010838971
O   -6.049070502   -6.049070502   6.065608221
Ti   -6.049070502   -6.049070502   7.946455662
Ti   6.049071221   -6.049397582   -7.97272912
Ti   -6.049069783   -6.049397582   -7.97272912
Ba   4.032721751   8.065389371   -5.993277064
Ba   8.065435419   4.032675703   -5.993277064
Ba   8.065427336   4.032713668   -2.03146445
Ba   8.065427336   4.032713668   2.031467231
Ba   8.065427336   4.032713668   6.154482055
Ba   4.032713668   8.065427336   -2.03146445
Ba   4.032713668   8.065427336   2.031467231
Ba   4.032713668   8.065427336   6.154482055
Ba   8.065427336   -4.032713668   -2.03146445
Ba   8.065427336   -4.032713668   2.031467231
Ba   8.065427336   -4.032713668   6.154482055
Ba   -4.032705585   8.065389371   -5.993277064
Ba   8.065435419   -4.032751634   -5.993277064
Ba   -4.032713668   8.065427336   -2.03146445
Ba   -4.032713668   8.065427336   2.031467231
Ba   -4.032713668   8.065427336   6.154482055
Ba   4.032713668   -8.065427336   -2.03146445
Ba   4.032713668   -8.065427336   2.031467231
Ba   4.032713668   -8.065427336   6.154482055
Ba   -8.065419253   4.032675703   -5.993277064
Ba   4.032721751   -8.065465302   -5.993277064
Ba   -8.065427336   4.032713668   -2.03146445
Ba   -8.065427336   4.032713668   2.031467231
Ba   -8.065427336   4.032713668   6.154482055
Ba   -4.032713668   -8.065427336   -2.03146445
Ba   -4.032713668   -8.065427336   2.031467231
Ba   -4.032713668   -8.065427336   6.154482055
Ba   -8.065427336   -4.032713668   -2.03146445
Ba   -8.065427336   -4.032713668   2.031467231
Ba   -8.065427336   -4.032713668   6.154482055
Ba   -8.065419253   -4.032751634   -5.993277064
Ba   -4.032705585   -8.065465302   -5.993277064
O   8.065427336   6.049070502   -4.027872779
O   8.065427336   6.049070502   0.0000009908377482
O   8.065427336   6.049070502   4.027872504
O   8.065427336   6.049070502   8.05388875
O   6.049070502   8.065427336   -4.027872779
O   6.049070502   8.065427336   0.0000009908377482
O   6.049070502   8.065427336   4.027872504
O   6.049070502   8.065427336   8.05388875
O   8.065422699   6.0491121   -8.335237621
H   8.06541529   6.049126731   -9.312718211
O   10.08178208   0.0001629385696   -8.165028397
O   10.08178417   0   -4.027872779
O   10.08178417   0   0.0000009908377482
O   10.08178417   0   4.027872504
O   10.08178417   0   8.05388875
O   6.049068412   -8.065264398   -8.165028397
O   0   10.08178417   -4.027872779
O   0   10.08178417   0.0000009908377482
O   0   10.08178417   4.027872504
O   0   10.08178417   8.05388875
H   8.06541529   -6.049014274   -9.312718211
O   8.065422699   -6.049028904   -8.335237621
O   -0.000004637620718   10.08182577   -8.335237621
H   -0.000012046119   10.0818404   -9.312718211
O   8.065427336   -6.049070502   -4.027872779
O   8.065427336   -6.049070502   0.0000009908377482
O   8.065427336   -6.049070502   4.027872504
O   8.065427336   -6.049070502   8.05388875
O   6.049068412   8.065590275   -8.165028397
O   -6.049070502   8.065427336   -4.027872779
O   -6.049070502   8.065427336   0.0000009908377482
O   -6.049070502   8.065427336   4.027872504
O   -6.049070502   8.065427336   8.05388875
O   6.049070502   -8.065427336   -4.027872779
O   6.049070502   -8.065427336   0.0000009908377482
O   6.049070502   -8.065427336   4.027872504
O   6.049070502   -8.065427336   8.05388875
O   -6.049072592   -8.065264398   -8.165028397
O   -8.065427336   6.049070502   -4.027872779
O   -8.065427336   6.049070502   0.0000009908377482
O   -8.065427336   6.049070502   4.027872504
O   -8.065427336   6.049070502   8.05388875
O   -8.065431974   6.0491121   -8.335237621
H   -8.065439382   6.049126731   -9.312718211
O   -6.049072592   8.065590275   -8.165028397
H   -8.065439382   -6.049014274   -9.312718211
O   -8.065431974   -6.049028904   -8.335237621
O   -6.049070502   -8.065427336   -4.027872779
O   -6.049070502   -8.065427336   0.0000009908377482
O   -6.049070502   -8.065427336   4.027872504
O   -6.049070502   -8.065427336   8.05388875
O   -8.065427336   -6.049070502   -4.027872779
O   -8.065427336   -6.049070502   0.0000009908377482
O   -8.065427336   -6.049070502   4.027872504
O   -8.065427336   -6.049070502   8.05388875
Ti   2.016357553   10.08145709   -7.97272912
Ti   -2.016356115   10.08145709   -7.97272912
Ti   10.08178489   2.016029754   -7.97272912
Ti   10.08178417   2.016356834   -4.010838933
O   10.08178417   2.016356834   -2.018618491
Ti   10.08178417   2.016356834   0
O   10.08178417   2.016356834   2.018619954
Ti   10.08178417   2.016356834   4.010838971
O   10.08178417   2.016356834   6.065608221
Ti   10.08178417   2.016356834   7.946455662
O   10.08179305   2.016381548   -6.131651791
Ti   2.016356834   10.08178417   -4.010838933
O   2.016356834   10.08178417   -2.018618491
Ti   2.016356834   10.08178417   0
O   2.016356834   10.08178417   2.018619954
Ti   2.016356834   10.08178417   4.010838971
O   2.016356834   10.08178417   6.065608221
Ti   2.016356834   10.08178417   7.946455662
Ti   10.08178417   -2.016356834   -4.010838933
O   10.08178417   -2.016356834   -2.018618491
Ti   10.08178417   -2.016356834   0
O   10.08178417   -2.016356834   2.018619954
Ti   10.08178417   -2.016356834   4.010838971
O   10.08178417   -2.016356834   6.065608221
Ti   10.08178417   -2.016356834   7.946455662
O   10.08179305   -2.01633212   -6.131651791
O   2.016365711   10.08180888   -6.131651791
Ti   -2.016356834   10.08178417   -4.010838933
O   -2.016356834   10.08178417   -2.018618491
Ti   -2.016356834   10.08178417   0
O   -2.016356834   10.08178417   2.018619954
Ti   -2.016356834   10.08178417   4.010838971
O   -2.016356834   10.08178417   6.065608221
Ti   -2.016356834   10.08178417   7.946455662
O   -2.016347957   10.08180888   -6.131651791
Ti   10.08178489   -2.016683914   -7.97272912
O   10.08178417   4.032713668   -4.027872779
O   10.08178417   4.032713668   0.0000009908377482
O   10.08178417   4.032713668   4.027872504
O   10.08178417   4.032713668   8.05388875
O   4.032713668   10.08178417   -4.027872779
O   4.032713668   10.08178417   0.0000009908377482
O   4.032713668   10.08178417   4.027872504
O   4.032713668   10.08178417   8.05388875
O   10.08178208   -4.03255073   -8.165028397
O   4.03270903   10.08182577   -8.335237621
O   10.08178208   4.032876607   -8.165028397
H   4.032701622   10.0818404   -9.312718211
O   10.08178417   -4.032713668   -4.027872779
O   10.08178417   -4.032713668   0.0000009908377482
O   10.08178417   -4.032713668   4.027872504
O   10.08178417   -4.032713668   8.05388875
O   -4.032713668   10.08178417   -4.027872779
O   -4.032713668   10.08178417   0.0000009908377482
O   -4.032713668   10.08178417   4.027872504
O   -4.032713668   10.08178417   8.05388875
O   -4.032718306   10.08182577   -8.335237621
H   -4.032725714   10.0818404   -9.312718211
Ba   8.065435419   8.065389371   -5.993277064
Ba   8.065427336   8.065427336   -2.03146445
Ba   8.065427336   8.065427336   2.031467231
Ba   8.065427336   8.065427336   6.154482055
Ba   8.065427336   -8.065427336   -2.03146445
Ba   8.065427336   -8.065427336   2.031467231
Ba   8.065427336   -8.065427336   6.154482055
Ba   -8.065419253   8.065389371   -5.993277064
Ba   8.065435419   -8.065465302   -5.993277064
Ba   -8.065427336   8.065427336   -2.03146445
Ba   -8.065427336   8.065427336   2.031467231
Ba   -8.065427336   8.065427336   6.154482055
Ba   -8.065427336   -8.065427336   -2.03146445
Ba   -8.065427336   -8.065427336   2.031467231
Ba   -8.065427336   -8.065427336   6.154482055
Ba   -8.065419253   -8.065465302   -5.993277064
Ti   6.049071221   10.08145709   -7.97272912
Ti   10.08178489   6.048743422   -7.97272912
Ti   -6.049069783   10.08145709   -7.97272912
Ti   10.08178417   6.049070502   -4.010838933
O   10.08178417   6.049070502   -2.018618491
Ti   10.08178417   6.049070502   0
O   10.08178417   6.049070502   2.018619954
Ti   10.08178417   6.049070502   4.010838971
O   10.08178417   6.049070502   6.065608221
Ti   10.08178417   6.049070502   7.946455662
Ti   6.049070502   10.08178417   -4.010838933
O   6.049070502   10.08178417   -2.018618491
Ti   6.049070502   10.08178417   0
O   6.049070502   10.08178417   2.018619954
Ti   6.049070502   10.08178417   4.010838971
O   6.049070502   10.08178417   6.065608221
Ti   6.049070502   10.08178417   7.946455662
O   10.08179305   6.049095216   -6.131651791
O   6.049079379   10.08180888   -6.131651791
O   10.08179305   -6.049045788   -6.131651791
Ti   10.08178417   -6.049070502   -4.010838933
O   10.08178417   -6.049070502   -2.018618491
Ti   10.08178417   -6.049070502   0
O   10.08178417   -6.049070502   2.018619954
Ti   10.08178417   -6.049070502   4.010838971
O   10.08178417   -6.049070502   6.065608221
Ti   10.08178417   -6.049070502   7.946455662
Ti   -6.049070502   10.08178417   -4.010838933
O   -6.049070502   10.08178417   -2.018618491
Ti   -6.049070502   10.08178417   0
O   -6.049070502   10.08178417   2.018619954
Ti   -6.049070502   10.08178417   4.010838971
O   -6.049070502   10.08178417   6.065608221
Ti   -6.049070502   10.08178417   7.946455662
O   -6.049061625   10.08180888   -6.131651791
Ti   10.08178489   -6.049397582   -7.97272912
O   10.08178417   8.065427336   -4.027872779
O   10.08178417   8.065427336   0.0000009908377482
O   10.08178417   8.065427336   4.027872504
O   10.08178417   8.065427336   8.05388875
O   8.065427336   10.08178417   -4.027872779
O   8.065427336   10.08178417   0.0000009908377482
O   8.065427336   10.08178417   4.027872504
O   8.065427336   10.08178417   8.05388875
O   10.08178208   -8.065264398   -8.165028397
O   8.065422699   10.08182577   -8.335237621
H   8.06541529   10.0818404   -9.312718211
O   10.08178208   8.065590275   -8.165028397
O   10.08178417   -8.065427336   -4.027872779
O   10.08178417   -8.065427336   0.0000009908377482
O   10.08178417   -8.065427336   4.027872504
O   10.08178417   -8.065427336   8.05388875
O   -8.065427336   10.08178417   -4.027872779
O   -8.065427336   10.08178417   0.0000009908377482
O   -8.065427336   10.08178417   4.027872504
O   -8.065427336   10.08178417   8.05388875
O   -8.065431974   10.08182577   -8.335237621
H   -8.065439382   10.0818404   -9.312718211
Ti   10.08178489   10.08145709   -7.97272912
Ti   10.08178417   10.08178417   -4.010838933
O   10.08178417   10.08178417   -2.018618491
Ti   10.08178417   10.08178417   0
O   10.08178417   10.08178417   2.018619954
Ti   10.08178417   10.08178417   4.010838971
O   10.08178417   10.08178417   6.065608221
Ti   10.08178417   10.08178417   7.946455662
O   10.08179305   10.08180888   -6.131651791