840
StandupStart
Ba   0.08827884323   0.08807900412   -1.912669086
Ba   0.1177358732   0.04697204708   -6.132824457
O   -1.896714533   0.1607955021   -4.0130998
O   0.09304204628   -1.909045609   -3.987429358
O   -0.04193254265   -1.970906323   -8.079591486
O   -0.03143321252   -1.999750331   0.05100466477
O   -1.99979359   -0.03155143555   0.05072130009
O   -2.015040683   -0.01743917547   -8.073252745
O   -0.03131342358   2.0328023   0.05087843882
O   2.033089389   -0.03144643458   0.05063186943
O   -0.04409581568   2.043972427   -8.059812436
O   2.045543652   0.05336263963   -8.075041364
O   2.119030296   0.1634470734   -3.986448992
O   0.1493886634   2.147587588   -4.006133352
Ti   -1.842312261   -1.831577307   -7.965297514
Ti   -1.839682735   -1.839747383   -0.07327648984
O   -1.934543274   -1.934869549   -1.976631404
O   -1.948495452   -1.939303593   -6.061316137
Ti   1.997906087   1.994500952   -4.01202297
O   2.103748925   -1.898015955   -10.26305969
Ti   2.210887698   -1.779642912   -8.444900631
Ti   -2.020412397   1.99516471   -4.01360729
O   2.088873888   -1.934116287   -5.903102227
Ti   1.981641831   -2.045978049   -4.080304319
O   -1.93437893   2.097880077   -1.976785025
O   2.098112392   -1.934667889   -1.976818386
Ti   -1.995299787   -2.040448394   -4.012997968
Ti   -1.84431497   2.184773069   -7.936837104
O   -1.943312095   2.097479489   -6.035730119
Ti   -1.839479792   2.19278705   -0.07296256083
Ti   2.193039018   -1.83966211   -0.07309098259
O   2.098537545   2.098042025   -1.976899511
O   2.097384977   2.10260553   -6.036008458
Ti   2.202640089   2.16074168   -7.948544626
Ti   2.193304065   2.192644406   -0.07352053233
H   2.919284957   -1.955412156   -10.79147316
Ba   0.1134036922   -3.918629865   -6.153428787
Ba   -3.94173117   0.07683362115   -6.101831932
Ba   -3.944379296   0.08795316652   -1.912658867
Ba   0.08824495674   -3.944565506   -1.912482874
Ba   4.057852938   0.02650247602   -6.140383887
Ba   0.09437180579   4.108796809   -6.111069088
Ba   0.08832592919   4.120706436   -1.912325512
Ba   4.12108491   0.08798741837   -1.91266426
O   -3.874047178   -1.8915133   -4.007915901
O   -1.902788822   -3.886519018   -4.019317799
O   -3.875897341   2.141928404   -4.00334972
O   4.003502929   -1.962208134   -8.104670694
O   2.120568537   -3.93425964   -3.991064663
O   -1.999789654   4.000930994   0.05093195373
O   4.001134958   -1.999830656   0.05085668958
O   2.029124214   3.992563668   -8.085640346
O   -2.013558225   4.001171041   -8.070349116
O   2.03330142   4.000891242   0.05090340252
O   4.001501184   2.03264198   0.05077475129
O   4.019276816   2.044433939   -8.061864653
O   -4.064068977   -2.000043724   0.05091994431
O   -1.999797891   -4.064611965   0.0510128782
O   -1.999213154   -4.067416042   -8.083559902
O   -4.077307176   -1.998445176   -8.088596315
O   -4.064076925   2.032597081   0.05080885192
O   2.032933524   -4.064152849   0.05086660562
O   -4.077317592   2.033109326   -8.065959178
O   2.049298075   -4.088015501   -8.07745777
O   -1.894996975   4.196894251   -4.006625993
O   4.197398243   -1.914126536   -3.989457652
O   4.183464274   2.13130092   -4.000308223
O   2.137996633   4.203299834   -4.002838769
Ba   -3.939589818   -3.941490804   -6.11029304
Ba   -3.94435161   -3.944784583   -1.912324892
Ba   4.062403502   -3.903946483   -6.147642698
Ba   -3.948197195   4.114178757   -6.097659763
Ba   -3.944402923   4.12071926   -1.912506662
Ba   4.121197697   -3.944577322   -1.912669097
Ba   4.10797949   4.108599985   -6.091725018
Ba   4.12111622   4.120859118   -1.912346939
O   -5.924264657   0.156884282   -4.004457046
O   0.1446426671   -5.935091834   -4.018684567
O   -6.032465304   -0.03167437162   0.05092867796
O   -0.03118296287   -6.032627866   0.05089136568
O   -0.03262399019   -6.041292597   -8.083762675
O   -6.04293241   -0.02795364199   -8.06831601
O   -0.03826448792   6.056878969   -8.07161917
O   -0.03132656458   6.065452046   0.05093413059
O   6.065622723   -0.03146640457   0.05077003867
O   6.067813488   -0.02746257159   -8.070946102
Ti   -5.872240359   -1.839766631   -0.07288608243
Ti   -1.83939566   -5.872692156   -0.07296133287
Ti   -1.839406132   -5.875126959   -7.954051792
Ti   -5.881237864   -1.839407467   -7.948140037
O   6.167576305   0.1470546553   -4.001167721
O   0.1528353487   6.178938058   -4.008372144
Ti   -5.87221413   2.192815963   -0.07305665936
Ti   2.193205433   -5.872307935   -0.07295293837
O   -5.9671523   -1.934837206   -1.976667152
O   -1.934473609   -5.967560197   -1.976713601
Ti   2.194390875   -5.877788462   -7.966783339
Ti   -5.882455105   2.185693989   -7.934591904
O   -5.969783711   -1.939427229   -6.047636945
O   -1.938646789   -5.972755269   -6.052843878
O   -5.967125861   2.097762545   -1.976773379
O   2.098590041   -5.967114457   -1.976757606
O   -5.973006868   2.094295303   -6.032409825
O   2.092850263   -5.985165425   -6.058438074
Ti   6.023012668   1.988580496   -4.012998092
Ti   1.991567524   -6.0292251   -4.016091519
Ti   6.026041153   -2.034405347   -4.006539313
Ti   -2.027084619   6.037816947   -4.011894521
Ti   2.001124537   6.051571399   -4.009718707
Ti   -6.044191897   -2.031708742   -4.008595985
Ti   -6.058727559   2.000733445   -4.006561407
Ti   -2.024372311   -6.058843703   -4.016734466
O   6.123770911   -1.940187959   -6.046953006
O   -1.940813693   6.127545771   -6.040675786
O   -1.934481845   6.130753739   -1.976716604
O   6.131204027   -1.934496689   -1.976708956
O   6.125059444   2.088203221   -6.025621375
O   2.095141526   6.123311078   -6.046667135
O   2.098383706   6.130830364   -1.976694462
O   6.131324525   2.098227352   -1.976906163
Ti   -1.843968903   6.214928664   -7.944128097
Ti   6.217547938   -1.839242494   -7.94556439
Ti   -1.839595386   6.225574455   -0.07341340652
Ti   6.225806929   -1.839698496   -0.0733873072
Ti   2.195755879   6.200707807   -7.951270691
Ti   6.215495856   2.182757304   -7.92740619
Ti   2.193138042   6.225615371   -0.07327184012
Ti   6.225886474   2.192912733   -0.07312189576
O   -5.918422609   -3.880228404   -4.008539367
O   -3.874118645   -5.929264025   -4.012824612
O   -6.032393251   4.000891472   0.05080133535
O   4.001274665   -6.032446939   0.0511608925
O   -6.043285884   3.997884136   -8.064731089
O   4.192189314   -5.923091586   -4.015896921
O   4.013246426   -6.04829859   -8.080699484
O   4.011805827   6.050123392   -8.06676837
O   -5.928724082   4.192501925   -4.003150707
O   6.068232773   3.994051981   -8.056028061
O   6.065586481   4.001039296   0.05085167571
O   4.001296257   6.065559155   0.05111500869
O   -6.032359271   -4.064326199   0.05097876225
O   -4.064173517   -6.032919968   0.05069448698
O   -4.073305109   -6.035392359   -8.080006946
O   -6.040563966   -4.067089367   -8.07494094
O   6.054006489   -4.0569847   -8.074965717
O   -3.876617777   6.17399253   -4.006040181
O   6.181615103   -3.881580066   -4.006288572
O   -4.064061565   6.065341558   0.05090504827
O   6.065780567   -4.064381093   0.05090767276
O   -4.075604259   6.061016987   -8.070673501
O   6.167028019   4.191705108   -4.00311875
O   4.190118591   6.174611539   -4.004094515
Ba   -7.976866613   0.08808302191   -1.912772488
Ba   0.08840586927   -7.977211144   -1.912758528
Ba   0.09454374537   -7.978483281   -6.115422561
Ba   -7.984937956   0.07622882903   -6.0903791
O   -7.894313665   -1.896010387   -4.008712248
O   -1.896428403   -7.90727385   -4.011460539
Ba   8.145916716   0.07622882903   -6.0903791
Ba   0.09454374537   8.152371392   -6.115422561
Ba   0.08840586927   8.153643528   -1.912758528
Ba   8.153988059   0.08808302191   -1.912772488
O   -7.906267607   2.133804294   -4.002404106
O   2.14166127   -7.906001737   -4.007337421
O   2.03395679   8.006067256   -8.092194567
O   -2.005653926   8.025040867   -8.079247952
O   8.028370575   -2.000995479   -8.079631835
O   -1.999750255   8.033755145   0.05095483696
O   8.033916296   -1.999921805   0.05100462001
O   8.028020931   2.027794901   -8.058549366
O   2.033040624   8.033792794   0.05089224078
O   8.033990446   2.032721958   0.05095410744
Ti   -5.872359873   -5.872587189   -0.07336639677
Ti   -5.880756107   -5.874257851   -7.947058043
O   -8.096938376   -1.999921805   0.05100462001
O   -1.999750255   -8.097099527   0.05095483696
O   -8.102484097   -2.000995479   -8.079631835
O   -8.096864227   2.032721958   0.05095410744
O   2.033040624   -8.097061878   0.05089224078
O   -2.005653926   -8.105813805   -8.079247952
O   -8.102833741   2.027794901   -8.058549366
O   2.03395679   -8.124787417   -8.092194567
O   -1.896428403   8.223580822   -4.011460539
O   -5.967533419   -5.967685344   -1.976682867
O   -5.971673125   -5.97138723   -6.043823611
O   8.236541007   -1.896010387   -4.008712248
O   8.224587065   2.133804294   -4.002404106
O   2.14166127   8.224852935   -4.007337421
Ti   6.032849318   6.038267524   -4.008281694
Ti   6.025907931   -6.050408144   -4.013844422
Ti   6.207322469   -5.867458844   -7.941307868
O   6.124248793   -5.963314026   -6.043756688
O   -5.967067472   6.130895561   -1.976674553
O   6.13100761   -5.967398061   -1.976790874
Ti   -6.061102684   6.039089589   -4.008229184
O   -5.973777342   6.1282235   -6.035163559
Ti   -5.872212469   6.225670067   -0.073015047
Ti   6.22583392   -5.87262429   -0.07346114982
Ti   -5.883165103   6.21872161   -7.938255582
Ti   -6.059612285   -6.05921665   -4.011959881
O   6.128278039   6.126363455   -6.032168795
O   6.131100056   6.130933065   -1.976829774
Ti   6.216309939   6.218526947   -7.933756894
Ti   6.225838255   6.225633796   -0.07352052628
Ba   -7.977050739   -3.94465305   -1.912443001
Ba   -3.944436015   -7.977339638   -1.912659225
Ba   -3.94656359   -7.978698446   -6.10774061
Ba   -7.985575098   -3.944186557   -6.101954962
Ba   4.105193775   -7.97514731   -6.100141602
Ba   -7.976914981   4.120838273   -1.912594824
Ba   4.120924936   -7.977260424   -1.912613088
Ba   -7.985771243   4.113217616   -6.092313028
Ba   8.145279574   -3.944186557   -6.101954962
Ba   -3.94656359   8.152156226   -6.10774061
Ba   -3.944436015   8.153515034   -1.912659225
Ba   8.153803934   -3.94465305   -1.912443001
Ba   8.145083429   4.113217616   -6.092313028
Ba   4.105193775   8.155707362   -6.100141602
Ba   4.120924936   8.153594249   -1.912613088
Ba   8.153939691   4.120838273   -1.912594824
O   -7.900895013   -5.925304913   -4.01025471
O   -5.92507174   -7.908329893   -4.006629007
O   0.1528353487   -9.951916614   -4.008372144
O   -9.963278367   0.1470546553   -4.001167721
O   6.172132423   -7.90303697   -4.009718959
O   -7.907305143   6.173249421   -4.002545295
O   8.020990211   -6.032290625   -8.07645054
O   -6.032410963   8.033715858   0.05108670428
O   8.033953877   -6.03283893   0.05095368482
O   -6.0421669   8.028219342   -8.071312967
O   8.028778317   6.057471959   -8.067423847
O   6.064821409   8.024597283   -8.064768788
O   -10.06304118   -0.02746257159   -8.070946102
O   -10.06523195   -0.03146640457   0.05077003867
O   -0.03132656458   -10.06540263   0.05093413059
O   6.065428588   8.033764073   0.05079003367
O   8.033958712   6.065493499   0.05089912906
O   -0.03826448792   -10.0739757   -8.07161917
Ti   -9.905047743   -1.839698496   -0.0733873072
Ti   -1.839595386   -9.905280217   -0.07341340652
Ti   -9.913306735   -1.839242494   -7.94556439
Ti   -1.843968903   -9.915926009   -7.944128097
O   10.08792226   -0.02795364199   -8.06831601
O   -0.03262399019   10.08956208   -8.083762675
O   -6.032410963   -8.097138814   0.05108670428
O   -8.096900795   -6.03283893   0.05095368482
O   -0.03118296287   10.09822681   0.05089136568
O   10.09838937   -0.03167437162   0.05092867796
O   -8.109864462   -6.032290625   -8.07645054
O   -6.0421669   -8.10263533   -8.071312967
O   -8.102076355   6.057471959   -8.067423847
O   -8.09689596   6.065493499   0.05089912906
O   6.065428588   -8.097090599   0.05079003367
O   6.064821409   -8.106257389   -8.064768788
O   -5.92507174   8.222524779   -4.006629007
O   8.229959659   -5.925304913   -4.01025471
Ti   -9.904968198   2.192912733   -0.07312189576
Ti   2.193138042   -9.905239301   -0.07327184012
Ti   -9.915358816   2.182757304   -7.92740619
Ti   2.195755879   -9.930146865   -7.951270691
O   -9.999650645   -1.934496689   -1.976708956
O   -1.934481845   -10.00010093   -1.976716604
O   -1.940813693   -10.0033089   -6.040675786
O   -10.00708376   -1.940187959   -6.046953006
O   0.1446426671   10.19576284   -4.018684567
O   10.20659002   0.156884282   -4.004457046
O   -9.999530148   2.098227352   -1.976906163
O   2.098383706   -10.00002431   -1.976694462
O   -10.00579523   2.088203221   -6.025621375
O   2.095141526   -10.00754359   -6.046667135
Ti   10.07212711   2.000733445   -4.006561407
Ti   -2.024372311   10.07201097   -4.016734466
Ti   2.001124537   -10.07928327   -4.009718707
O   8.223549529   6.173249421   -4.002545295
O   6.172132423   8.227817702   -4.009718959
Ti   10.08666278   -2.031708742   -4.008595985
Ti   -2.027084619   -10.09303773   -4.011894521
Ti   1.991567524   10.10162957   -4.016091519
Ti   -10.107842   1.988580496   -4.012998092
Ti   -10.10481352   -2.034405347   -4.006539313
O   -1.938646789   10.1580994   -6.052843878
O   10.16107096   -1.939427229   -6.047636945
O   -1.934473609   10.16329448   -1.976713601
O   10.16370237   -1.934837206   -1.976667152
O   2.092850263   10.14568925   -6.058438074
O   10.1578478   2.094295303   -6.032409825
O   10.16372881   2.097762545   -1.976773379
O   2.098590041   10.16374022   -1.976757606
Ti   10.24961681   -1.839407467   -7.948140037
Ti   -1.839406132   10.25572771   -7.954051792
Ti   -1.83939566   10.25816252   -0.07296133287
Ti   10.25861431   -1.839766631   -0.07288608243
Ti   10.24839957   2.185693989   -7.934591904
Ti   2.194390875   10.25306621   -7.966783339
Ti   10.25864054   2.192815963   -0.07305665936
Ti   2.193205433   10.25854674   -0.07295293837
O   -9.94923957   -3.881580066   -4.006288572
O   -3.876617777   -9.956862142   -4.006040181
O   4.190118591   -9.956243133   -4.004094515
O   -9.963826654   4.191705108   -4.00311875
O   -10.0626219   3.994051981   -8.056028061
O   -10.06526819   4.001039296   0.05085167571
O   4.001296257   -10.06529552   0.05111500869
O   4.011805827   -10.08073128   -8.06676837
O   10.08756879   3.997884136   -8.064731089
O   4.013246426   10.08255608   -8.080699484
O   -10.0650741   -4.064381093   0.05090767276
O   -4.064061565   -10.06551311   0.05090504827
O   10.09846142   4.000891472   0.05080133535
O   4.001274665   10.09840773   0.0511608925
O   -10.07684818   -4.0569847   -8.074965717
O   -4.075604259   -10.06983769   -8.070673501
O   10.09029071   -4.067089367   -8.07494094
O   -4.064173517   10.0979347   0.05069448698
O   10.0984954   -4.064326199   0.05097876225
O   -4.073305109   10.09546231   -8.080006946
O   -3.874118645   10.20159065   -4.012824612
O   10.21243206   -3.880228404   -4.008539367
O   10.20213059   4.192501925   -4.003150707
O   4.192189314   10.20776309   -4.015896921
Ba   -7.97697596   -7.977336703   -1.912734125
Ba   -7.987630218   -7.975116957   -6.101916491
Ba   8.143224454   -7.975116957   -6.101916491
Ba   -7.97697596   8.15351797   -1.912734125
Ba   8.153878712   -7.977336703   -1.912734125
Ba   -7.987630218   8.155737715   -6.101916491
Ti   -5.872212469   -9.905184606   -0.073015047
Ti   -9.905020752   -5.87262429   -0.07346114982
Ba   8.143224454   8.155737715   -6.101916491
Ti   -5.883165103   -9.912133062   -7.938255582
Ti   -9.923532204   -5.867458844   -7.941307868
Ba   8.153878712   8.15351797   -1.912734125
O   -5.967067472   -9.999959111   -1.976674553
O   -9.999847062   -5.967398061   -1.976790874
O   -10.00660588   -5.963314026   -6.043756688
O   -5.973777342   -10.00263117   -6.035163559
Ti   -9.905016417   6.225633796   -0.07352052628
Ti   6.225838255   -9.905220876   -0.07352052628
Ti   6.216309939   -9.912327725   -7.933756894
Ti   -9.914544733   6.218526947   -7.933756894
O   -9.999754616   6.130933065   -1.976829774
O   -10.00257663   6.126363455   -6.032168795
O   6.131100056   -9.999921607   -1.976829774
O   6.128278039   -10.00449122   -6.032168795
Ti   10.06975199   6.039089589   -4.008229184
Ti   6.025907931   10.08044653   -4.013844422
Ti   10.07124239   -6.05921665   -4.011959881
Ti   -6.059612285   10.07163802   -4.011959881
Ti   6.032849318   -10.09258715   -4.008281694
Ti   -10.09800535   6.038267524   -4.008281694
Ti   -6.061102684   -10.09176508   -4.008229184
Ti   -10.10494674   -6.050408144   -4.013844422
O   10.15918155   -5.97138723   -6.043823611
O   -5.971673125   10.15946744   -6.043823611
O   -5.967533419   10.16316933   -1.976682867
O   10.16332125   -5.967685344   -1.976682867
Ti   10.25009857   -5.874257851   -7.947058043
Ti   -5.872359873   10.25826748   -0.07336639677
Ti   10.2584948   -5.872587189   -0.07336639677
Ti   -5.880756107   10.25659682   -7.947058043
O   10.15707733   6.1282235   -6.035163559
O   6.13100761   10.16345661   -1.976790874
O   6.124248793   10.16754065   -6.043756688
O   10.1637872   6.130895561   -1.976674553
Ti   10.24768957   6.21872161   -7.938255582
Ti   6.207322469   10.26339583   -7.941307868
Ti   6.22583392   10.25823038   -0.07346114982
Ti   10.2586422   6.225670067   -0.073015047
Ba   -12.00976976   0.08798741837   -1.91266426
Ba   0.08832592919   -12.01014824   -1.912325512
Ba   0.09437180579   -12.02205786   -6.111069088
Ba   -12.07300173   0.02650247602   -6.140383887
O   -1.894996975   -11.93396042   -4.006625993
O   -11.93345643   -1.914126536   -3.989457652
O   2.137996633   -11.92755484   -4.002838769
O   -11.9473904   2.13130092   -4.000308223
Ba   0.08824495674   12.18628917   -1.912482874
Ba   12.18647538   0.08795316652   -1.912658867
Ba   12.1891235   0.07683362115   -6.101831932
Ba   0.1134036922   12.21222481   -6.153428787
O   2.049298075   12.04283917   -8.07745777
O   12.0535475   -1.998445176   -8.088596315
O   12.05353708   2.033109326   -8.065959178
O   -1.999213154   12.06343863   -8.083559902
O   -1.999797891   12.06624271   0.0510128782
O   12.0667857   -2.000043724   0.05091994431
O   12.06677775   2.032597081   0.05080885192
O   2.032933524   12.06670182   0.05086660562
O   -12.11157786   2.044433939   -8.061864653
O   -12.12735174   -1.962208134   -8.104670694
O   -12.12971971   -1.999830656   0.05085668958
O   -1.999789654   -12.12992368   0.05093195373
O   -2.013558225   -12.12968363   -8.070349116
O   -12.12935349   2.03264198   0.05077475129
O   2.03330142   -12.12996343   0.05090340252
O   2.029124214   -12.138291   -8.085640346
O   2.120568537   12.19659503   -3.991064663
O   -1.902788822   12.24433565   -4.019317799
O   12.25680749   -1.8915133   -4.007915901
O   12.25495733   2.141928404   -4.00334972
Ba   -12.00965698   -3.944577322   -1.912669097
Ba   -3.944402923   -12.01013541   -1.912506662
Ba   -3.948197195   -12.01667592   -6.097659763
Ba   -12.06845117   -3.903946483   -6.147642698
Ba   -12.00973845   4.120859118   -1.912346939
Ba   4.12111622   -12.00999555   -1.912346939
Ba   4.10797949   -12.02225469   -6.091725018
Ba   -12.02287518   4.108599985   -6.091725018
O   -9.95872225   -7.90303697   -4.009718959
O   -7.907305143   -9.957605251   -4.002545295
Ba   -3.94435161   12.18607009   -1.912324892
Ba   12.18650306   -3.944784583   -1.912324892
Ba   -3.939589818   12.18936387   -6.11029304
Ba   12.19126485   -3.941490804   -6.11029304
Ba   12.18265748   4.114178757   -6.097659763
Ba   12.18645175   4.12071926   -1.912506662
Ba   4.121197697   12.18627735   -1.912669097
O   -10.06603326   8.024597283   -8.064768788
O   -10.06542608   8.033764073   0.05079003367
O   8.033958712   -10.06536117   0.05089912906
O   8.028778317   -10.07338271   -8.067423847
Ba   4.062403502   12.22690819   -6.147642698
O   10.08868777   8.028219342   -8.071312967
O   8.020990211   10.09856405   -8.07645054
O   8.033953877   10.09801574   0.05095368482
O   10.09844371   8.033715858   0.05108670428
O   -7.900895013   10.20554976   -4.01025471
O   10.20578293   -7.908329893   -4.006629007
O   8.223549529   -9.957605251   -4.002545295
O   -9.95872225   8.227817702   -4.009718959
O   -8.09689596   -10.06536117   0.05089912906
O   -10.06542608   -8.097090599   0.05079003367
O   -10.06603326   -8.106257389   -8.064768788
O   -8.102076355   -10.07338271   -8.067423847
O   10.08868777   -8.10263533   -8.071312967
O   -8.096900795   10.09801574   0.05095368482
O   10.09844371   -8.097138814   0.05108670428
O   -8.109864462   10.09856405   -8.07645054
O   10.20578293   8.222524779   -4.006629007
O   8.229959659   10.20554976   -4.01025471
O   -11.93866536   -5.923091586   -4.015896921
O   -5.928724082   -11.93835275   -4.003150707
H   -13.21156971   -1.955412156   -10.79147316
O   6.167028019   -11.93914956   -4.00311875
O   -11.94073608   6.174611539   -4.004094515
O   12.05754956   -6.035392359   -8.080006946
O   -6.032359271   12.06652847   0.05097876225
O   12.06668116   -6.032919968   0.05069448698
O   -6.040563966   12.06376531   -8.07494094
O   12.05525041   6.061016987   -8.070673501
O   6.065780567   12.06647358   0.05090767276
O   12.06679311   6.065341558   0.05090504827
O   6.054006489   12.07386997   -8.074965717
O   -12.11760825   -6.04829859   -8.080699484
O   -12.11904885   6.050123392   -8.06676837
O   -12.12958001   -6.032446939   0.0511608925
O   -6.032393251   -12.1299632   0.05080133535
O   -6.043285884   -12.13297054   -8.064731089
O   -12.12955842   6.065559155   0.05111500869
O   6.065586481   -12.12981538   0.05085167571
O   6.068232773   -12.13680269   -8.056028061
O   -5.918422609   12.25062627   -4.008539367
O   12.25673603   -5.929264025   -4.012824612
O   6.181615103   12.24927461   -4.006288572
O   12.2542369   6.17399253   -4.006040181
O   0.1493886634   -13.98326708   -4.006133352
Ti   -9.905016417   -9.905220876   -0.07352052628
O   -14.01182438   0.1634470734   -3.986448992
Ti   -9.914544733   -9.912327725   -7.933756894
Ti   -13.91996697   -1.779642912   -8.444900631
Ti   -13.93781565   -1.83966211   -0.07309098259
Ti   -1.839479792   -13.93806762   -0.07296256083
Ti   -1.84431497   -13.9460816   -7.936837104
O   -14.08531102   0.05336263963   -8.075041364
O   -0.04409581568   -14.08688225   -8.059812436
Ti   -13.92821458   2.16074168   -7.948544626
O   -14.09776528   -0.03144643458   0.05063186943
O   -0.03131342358   -14.09805237   0.05087843882
Ti   -13.93755061   2.192644406   -0.07352053233
Ti   2.193304065   -13.93821027   -0.07352053233
O   14.11581399   -0.01743917547   -8.073252745
O   14.13106108   -0.03155143555   0.05072130009
O   -0.03143321252   14.13110434   0.05100466477
O   -9.999754616   -9.999921607   -1.976829774
Ti   2.202640089   -13.97011299   -7.948544626
O   -10.00257663   -10.00449122   -6.032168795
O   -14.02710575   -1.898015955   -10.26305969
O   -0.04193254265   14.15994835   -8.079591486
O   -14.03274228   -1.934667889   -1.976818386
O   -1.93437893   -14.0329746   -1.976785025
O   -1.943312095   -14.03337518   -6.035730119
O   -14.04198078   -1.934116287   -5.903102227
O   2.097384977   -14.02824914   -6.036008458
O   -14.03231713   2.098042025   -1.976899511
O   2.098537545   -14.03281265   -1.976899511
O   -14.03346969   2.10260553   -6.036008458
O   0.09304204628   14.22180906   -3.987429358
Ti   1.981641831   14.08487662   -4.080304319
Ti   -1.995299787   14.09040628   -4.012997968
O   14.23414014   0.1607955021   -4.0130998
Ti   10.07124239   10.07163802   -4.011959881
Ti   14.11044228   1.99516471   -4.01360729
O   10.15707733   -10.00263117   -6.035163559
Ti   10.06975199   -10.09176508   -4.008229184
Ti   10.24768957   -9.912133062   -7.938255582
O   -9.999847062   10.16345661   -1.976790874
O   10.1637872   -9.999959111   -1.976674553
Ti   -9.905020752   10.25823038   -0.07346114982
Ti   10.2586422   -9.905184606   -0.073015047
O   -10.00660588   10.16754065   -6.043756688
Ti   -14.13294858   1.994500952   -4.01202297
Ti   -10.10494674   10.08044653   -4.013844422
Ti   -9.923532204   10.26339583   -7.941307868
Ti   1.997906087   -14.13635372   -4.01202297
Ti   -10.09800535   -10.09258715   -4.008281694
Ti   -2.020412397   -14.13568996   -4.01360729
Ti   14.13555489   -2.040448394   -4.012997968
Ti   -14.14921284   -2.045978049   -4.080304319
O   14.18235922   -1.939303593   -6.061316137
O   -1.948495452   14.19155108   -6.061316137
O   -1.934543274   14.19598512   -1.976631404
O   14.1963114   -1.934869549   -1.976631404
O   14.18754258   2.097479489   -6.035730119
O   2.088873888   14.19673839   -5.903102227
O   2.098112392   14.19618678   -1.976818386
O   14.19647574   2.097880077   -1.976785025
O   10.15918155   10.15946744   -6.043823611
O   10.16332125   10.16316933   -1.976682867
O   2.103748925   14.23283872   -10.26305969
Ti   14.28854241   -1.831577307   -7.965297514
Ti   -1.839682735   14.29110729   -0.07327648984
Ti   14.29117194   -1.839747383   -0.07327648984
Ti   -1.842312261   14.29927736   -7.965297514
Ba   -7.976914981   -12.0100164   -1.912594824
Ba   -12.00992974   -7.977260424   -1.912613088
Ba   -7.985771243   -12.01763706   -6.092313028
Ba   -12.0256609   -7.97514731   -6.100141602
Ti   14.2865397   2.184773069   -7.936837104
Ti   2.193039018   14.29119256   -0.07309098259
Ti   14.29137488   2.19278705   -0.07296256083
H   2.919284957   14.17544252   -10.79147316
Ti   10.25009857   10.25659682   -7.947058043
Ti   10.2584948   10.25826748   -0.07336639677
O   -3.875897341   -13.98892627   -4.00334972
Ba   -12.00992974   8.153594249   -1.912613088
Ba   8.153939691   -12.0100164   -1.912594824
Ba   8.145083429   -12.01763706   -6.092313028
Ti   2.210887698   14.35121176   -8.444900631
Ba   -12.0256609   8.155707362   -6.100141602
O   -14.01028614   -3.93425964   -3.991064663
Ba   12.18429108   -7.978698446   -6.10774061
Ba   -7.977050739   12.18620162   -1.912443001
Ba   12.18641866   -7.977339638   -1.912659225
Ba   -7.985575098   12.18666812   -6.101954962
O   -13.99285804   4.203299834   -4.002838769
O   4.183464274   -13.99955375   -4.000308223
O   4.019276816   -14.08642073   -8.061864653
O   -14.09755325   4.000891242   0.05090340252
O   4.001501184   -14.09821269   0.05077475129
O   -14.10173046   3.992563668   -8.085640346
Ba   8.145279574   12.18666812   -6.101954962
Ba   12.18429108   8.152156226   -6.10774061
Ba   8.153803934   12.18620162   -1.912443001
Ba   12.18641866   8.153515034   -1.912659225
O   -14.0815566   -4.088015501   -8.07745777
O   -14.09792115   -4.064152849   0.05086660562
O   -4.064076925   -14.09825759   0.05080885192
O   14.11729645   4.001171041   -8.070349116
O   -4.077317592   -14.09774535   -8.065959178
O   14.13106502   4.000930994   0.05093195373
O   4.001134958   14.13102402   0.05085668958
O   -4.064068977   14.13081095   0.05091994431
O   14.13105678   -4.064611965   0.0510128782
O   14.13164152   -4.067416042   -8.083559902
O   -4.077307176   14.1324095   -8.088596315
O   4.003502929   14.16864654   -8.104670694
O   14.22806585   -3.886519018   -4.019317799
O   -3.874047178   14.23934137   -4.007915901
O   4.197398243   14.21672814   -3.989457652
O   14.2358577   4.196894251   -4.006625993
Ti   -13.93764924   -5.872307935   -0.07295293837
Ti   -5.87221413   -13.93803871   -0.07305665936
Ti   -13.9364638   -5.877788462   -7.966783339
Ti   -5.882455105   -13.94516068   -7.934591904
O   -14.03226463   -5.967114457   -1.976757606
O   -5.967125861   -14.03309213   -1.976773379
Ti   -13.93509879   6.200707807   -7.951270691
O   -5.973006868   -14.03655937   -6.032409825
O   -14.03800441   -5.985165425   -6.058438074
Ti   -13.93771663   6.225615371   -0.07327184012
Ti   6.225886474   -13.93794194   -0.07312189576
Ti   6.215495856   -13.94809737   -7.92740619
O   -14.03571315   6.123311078   -6.046667135
O   -14.03247097   6.130830364   -1.976694462
O   6.131324525   -14.03262732   -1.976906163
O   6.125059444   -14.04265145   -6.025621375
Ti   6.026041153   14.09644933   -4.006539313
Ti   -6.044191897   14.09914593   -4.008595985
Ti   14.10377005   6.037816947   -4.011894521
Ti   14.10648236   -6.058843703   -4.016734466
Ti   -14.12973014   6.051571399   -4.009718707
Ti   -14.13928715   -6.0292251   -4.016091519
Ti   6.023012668   -14.14227418   -4.012998092
Ti   -6.058727559   -14.13012123   -4.006561407
O   -5.969783711   14.19142744   -6.047636945
O   14.19220788   -5.972755269   -6.052843878
O   -5.9671523   14.19601747   -1.976667152
O   14.19638106   -5.967560197   -1.976713601
Ti   -5.872240359   14.29108804   -0.07288608243
Ti   14.29145901   -5.872692156   -0.07296133287
Ti   14.29144854   -5.875126959   -7.954051792
Ti   -5.881237864   14.2914472   -7.948140037
O   6.123770911   14.19066671   -6.046953006
O   14.19004098   6.127545771   -6.040675786
O   14.19637283   6.130753739   -1.976716604
O   6.131204027   14.19635798   -1.976708956
O   -11.94073608   -9.956243133   -4.004094515
O   -9.963826654   -11.93914956   -4.00311875
Ti   14.28688577   6.214928664   -7.944128097
Ti   6.217547938   14.29161218   -7.94556439
Ti   14.29125929   6.225574455   -0.07341340652
Ti   6.225806929   14.29115618   -0.0733873072
O   10.20213059   -11.93835275   -4.003150707
O   12.05525041   -10.06983769   -8.070673501
O   -11.93866536   10.20776309   -4.015896921
O   -10.0650741   12.06647358   0.05090767276
O   12.06679311   -10.06551311   0.05090504827
O   12.05754956   10.09546231   -8.080006946
O   -10.07684818   12.07386997   -8.074965717
O   10.09029071   12.06376531   -8.07494094
O   12.06668116   10.0979347   0.05069448698
O   10.0984954   12.06652847   0.05097876225
O   -12.12955842   -10.06529552   0.05111500869
O   -10.06526819   -12.12981538   0.05085167571
O   -12.11760825   10.08255608   -8.080699484
O   -12.11904885   -10.08073128   -8.06676837
O   -10.0626219   -12.13680269   -8.056028061
O   10.08756879   -12.13297054   -8.064731089
O   -9.94923957   12.24927461   -4.006288572
O   -12.12958001   10.09840773   0.0511608925
O   10.09846142   -12.1299632   0.05080133535
O   12.2542369   -9.956862142   -4.006040181
O   12.25673603   10.20159065   -4.012824612
O   10.21243206   12.25062627   -4.008539367
Ba   -16.0131188   0.04697204708   -6.132824457
Ba   -16.04257583   0.08807900412   -1.912669086
Ba   0.08827884323   -16.04277567   -1.912669086
O   -13.9891934   -7.906001737   -4.007337421
O   -7.906267607   -13.99705038   -4.002404106
O   -1.896714533   -15.97005917   -4.0130998
Ba   0.1177358732   -16.08388263   -6.132824457
O   2.119030296   -15.9674076   -3.986448992
O   -15.98146601   2.147587588   -4.006133352
O   -16.03781263   -1.909045609   -3.987429358
O   2.045543652   -16.07749203   -8.075041364
O   16.08892213   -1.970906323   -8.079591486
O   -14.09689788   8.006067256   -8.092194567
O   16.08675886   2.043972427   -8.059812436
O   -1.99979359   16.09930324   0.05072130009
O   16.09942146   -1.999750331   0.05100466477
O   -14.09781405   8.033792794   0.05089224078
O   8.033990446   -14.09813271   0.05095410744
O   2.033089389   16.09940824   0.05063186943
O   16.09954125   2.0328023   0.05087843882
O   8.028020931   -14.10305977   -8.058549366
O   -13.9891934   8.224852935   -4.007337421
O   8.224587065   -13.99705038   -4.002404106
O   -2.015040683   16.1134155   -8.073252745
O   14.12520075   8.025040867   -8.079247952
O   8.028370575   14.12985919   -8.079631835
O   8.033916296   14.13093287   0.05100462001
O   14.13110442   8.033755145   0.05095483696
O   -14.09781405   -8.097061878   0.05089224078
O   -8.096864227   -14.09813271   0.05095410744
O   -8.102833741   -14.10305977   -8.058549366
O   -14.09689788   -8.124787417   -8.092194567
O   -7.894313665   14.23484429   -4.008712248
O   14.23442627   -7.90727385   -4.011460539
O   14.12520075   -8.105813805   -8.079247952
O   -8.096938376   14.13093287   0.05100462001
O   14.13110442   -8.097099527   0.05095483696
O   -8.102484097   14.12985919   -8.079631835
O   14.23442627   8.223580822   -4.011460539
O   8.236541007   14.23484429   -4.008712248
Ba   -16.01745098   -3.918629865   -6.153428787
Ba   -16.04260972   -3.944565506   -1.912482874
Ba   -3.944379296   -16.04290151   -1.912658867
Ba   -3.94173117   -16.05402105   -6.101831932
Ba   -16.03648287   4.108796809   -6.111069088
Ba   -16.04252874   4.120706436   -1.912325512
Ba   4.12108491   -16.04286725   -1.91266426
Ba   4.057852938   -16.1043522   -6.140383887
Ba   -12.00973845   -12.00999555   -1.912346939
Ba   -12.02287518   -12.02225469   -6.091725018
O   -5.924264657   -15.97397039   -4.004457046
O   -15.98621201   -5.935091834   -4.018684567
Ti   -13.93771663   -9.905239301   -0.07327184012
Ti   -9.904968198   -13.93794194   -0.07312189576
Ba   -12.00965698   12.18627735   -1.912669097
Ba   12.18645175   -12.01013541   -1.912506662
Ti   -13.93509879   -9.930146865   -7.951270691
Ba   12.18265748   -12.01667592   -6.097659763
Ti   -9.915358816   -13.94809737   -7.92740619
O   -15.97801932   6.178938058   -4.008372144
O   6.167576305   -15.98380002   -4.001167721
Ba   -12.06845117   12.22690819   -6.147642698
O   -6.032465304   16.0991803   0.05092867796
O   16.09967171   -6.032627866   0.05089136568
O   16.09823068   -6.041292597   -8.083762675
O   16.09259018   6.056878969   -8.07161917
O   -6.04293241   16.10290103   -8.06831601
O   6.065622723   16.09938827   0.05077003867
O   16.09952811   6.065452046   0.05093413059
O   6.067813488   16.1033921   -8.070946102
O   -9.999530148   -14.03262732   -1.976906163
O   -14.03247097   -10.00002431   -1.976694462
Ba   12.18650306   12.18607009   -1.912324892
O   -14.03571315   -10.00754359   -6.046667135
Ba   12.19126485   12.18936387   -6.11029304
O   -10.00579523   -14.04265145   -6.025621375
Ti   -13.9364638   10.25306621   -7.966783339
Ti   10.24839957   -13.94516068   -7.934591904
Ti   -13.93764924   10.25854674   -0.07295293837
Ti   10.25864054   -13.93803871   -0.07305665936
O   -14.03800441   10.14568925   -6.058438074
O   10.1578478   -14.03655937   -6.032409825
O   -14.03226463   10.16374022   -1.976757606
O   10.16372881   -14.03309213   -1.976773379
Ti   14.10648236   10.07201097   -4.016734466
Ti   10.08666278   14.09914593   -4.008595985
Ti   14.10377005   -10.09303773   -4.011894521
Ti   -10.10481352   14.09644933   -4.006539313
Ti   10.07212711   -14.13012123   -4.006561407
Ti   -14.12973014   -10.07928327   -4.009718707
O   14.19004098   -10.0033089   -6.040675786
O   -10.00708376   14.19066671   -6.046953006
O   -9.999650645   14.19635798   -1.976708956
O   14.19637283   -10.00010093   -1.976716604
Ti   -14.13928715   10.10162957   -4.016091519
Ti   -10.107842   -14.14227418   -4.012998092
Ti   -9.905047743   14.29115618   -0.0733873072
Ti   14.29125929   -9.905280217   -0.07341340652
Ti   14.28688577   -9.915926009   -7.944128097
Ti   -9.913306735   14.29161218   -7.94556439
O   14.19220788   10.1580994   -6.052843878
O   10.16107096   14.19142744   -6.047636945
O   10.16370237   14.19601747   -1.976667152
O   14.19638106   10.16329448   -1.976713601
Ti   10.24961681   14.2914472   -7.948140037
Ti   14.29144854   10.25572771   -7.954051792
Ti   10.25861431   14.29108804   -0.07288608243
Ti   14.29145901   10.25816252   -0.07296133287
Ba   -16.03631093   -7.978483281   -6.115422561
Ba   -16.0424488   -7.977211144   -1.912758528
Ba   -7.976866613   -16.04277165   -1.912772488
Ba   -7.984937956   -16.05462584   -6.0903791
Ba   -16.03631093   8.152371392   -6.115422561
Ba   -16.0424488   8.153643528   -1.912758528
Ba   8.153988059   -16.04277165   -1.912772488
Ba   8.145916716   -16.05462584   -6.0903791
O   -13.99285804   -11.92755484   -4.002838769
O   -11.9473904   -13.99955375   -4.000308223
O   -14.0815566   12.04283917   -8.07745777
O   12.05353708   -14.09774535   -8.065959178
O   -14.09792115   12.06670182   0.05086660562
O   12.06677775   -14.09825759   0.05080885192
O   -11.93345643   14.21672814   -3.989457652
O   12.0535475   14.1324095   -8.088596315
O   -14.01028614   12.19659503   -3.991064663
O   14.2358577   -11.93396042   -4.006625993
O   -12.11157786   -14.08642073   -8.061864653
O   14.13164152   12.06343863   -8.083559902
O   14.13105678   12.06624271   0.0510128782
O   12.0667857   14.13081095   0.05091994431
O   12.25495733   -13.98892627   -4.00334972
O   -14.09755325   -12.12996343   0.05090340252
O   -12.12935349   -14.09821269   0.05077475129
O   -14.10173046   -12.138291   -8.085640346
O   14.11729645   -12.12968363   -8.070349116
O   -12.12971971   14.13102402   0.05085668958
O   14.13106502   -12.12992368   0.05093195373
O   -12.12735174   14.16864654   -8.104670694
O   14.22806585   12.24433565   -4.019317799
O   12.25680749   14.23934137   -4.007915901
O   -15.97801932   -9.951916614   -4.008372144
O   -9.963278367   -15.98380002   -4.001167721
O   10.20659002   -15.97397039   -4.004457046
O   -15.98621201   10.19576284   -4.018684567
O   16.09259018   -10.0739757   -8.07161917
O   -10.06523195   16.09938827   0.05077003867
O   16.09952811   -10.06540263   0.05093413059
O   -10.06304118   16.1033921   -8.070946102
O   16.09823068   10.08956208   -8.083762675
O   10.08792226   16.10290103   -8.06831601
O   10.09838937   16.0991803   0.05092867796
O   16.09967171   10.09822681   0.05089136568
H   -13.21156971   14.17544252   -10.79147316
Ti   -13.93755061   -13.93821027   -0.07352053233
Ti   -13.92821458   -13.97011299   -7.948544626
O   -14.03346969   -14.02824914   -6.036008458
O   -14.03231713   -14.03281265   -1.976899511
O   14.18754258   -14.03337518   -6.035730119
Ti   14.13555489   14.09040628   -4.012997968
O   -14.03274228   14.19618678   -1.976818386
O   14.19647574   -14.0329746   -1.976785025
Ti   -13.93781565   14.29119256   -0.07309098259
Ti   14.29137488   -13.93806762   -0.07296256083
Ti   -14.14921284   14.08487662   -4.080304319
Ti   14.2865397   -13.9460816   -7.936837104
O   -14.04198078   14.19673839   -5.903102227
Ti   14.11044228   -14.13568996   -4.01360729
O   -14.02710575   14.23283872   -10.26305969
Ti   -14.13294858   -14.13635372   -4.01202297
Ti   -13.91996697   14.35121176   -8.444900631
Ba   -16.04252874   -12.01014824   -1.912325512
Ba   -12.00976976   -16.04286725   -1.91266426
Ba   -16.03648287   -12.02205786   -6.111069088
O   14.18235922   14.19155108   -6.061316137
O   14.1963114   14.19598512   -1.976631404
Ba   -12.07300173   -16.1043522   -6.140383887
Ba   -16.01745098   12.21222481   -6.153428787
Ba   -16.04260972   12.18628917   -1.912482874
Ba   12.18647538   -16.04290151   -1.912658867
Ba   12.1891235   -16.05402105   -6.101831932
Ti   14.29117194   14.29110729   -0.07327648984
Ti   14.28854241   14.29927736   -7.965297514
O   -15.98146601   -13.98326708   -4.006133352
O   -14.01182438   -15.9674076   -3.986448992
O   -14.08531102   -16.07749203   -8.075041364
O   16.08675886   -14.08688225   -8.059812436
O   14.23414014   -15.97005917   -4.0130998
O   -14.09776528   16.09940824   0.05063186943
O   16.09954125   -14.09805237   0.05087843882
O   14.13106108   16.09930324   0.05072130009
O   16.09942146   14.13110434   0.05100466477
O   14.11581399   16.1134155   -8.073252745
O   16.08892213   14.15994835   -8.079591486
O   -16.03781263   14.22180906   -3.987429358
Ba   -16.04257583   -16.04277567   -1.912669086
Ba   -16.0131188   -16.08388263   -6.132824457
