300
AboveBaForMakinPics
O   -5.925011911   -7.907244495   -4.005906309
O   10.20584276   -7.907244495   -4.005906309
O   -1.894216054   -7.905544369   -4.012637386
O   14.23663862   -7.905544369   -4.012637386
O   -13.99078997   -7.905364602   -4.00578351
O   2.140064703   -7.905364602   -4.00578351
O   -9.957880128   -7.905342178   -4.002592436
O   6.172974544   -7.905342178   -4.002592436
Ti   -6.061026102   -6.057324272   -4.012050551
Ti   10.06982857   -6.057324272   -4.012050551
Ti   -2.023370577   -6.056906909   -4.019220069
Ti   14.1074841   -6.056906909   -4.019220069
O   -12.10463655   -6.051305189   -8.060412764
O   4.026218119   -6.051305189   -8.060412764
Ti   -10.10474923   -6.050305178   -4.015336679
Ti   6.02610544   -6.050305178   -4.015336679
O   -8.101019748   -6.039980149   -8.070346957
O   8.029834925   -6.039980149   -8.070346957
O   -0.03337295424   -6.036500911   -8.08252308
O   16.09748172   -6.036500911   -8.08252308
O   -4.075989722   -6.03385635   -8.079365309
O   12.05486495   -6.03385635   -8.079365309
O   -4.064173517   -6.032919968   0.05069448698
O   12.06668116   -6.032919968   0.05069448698
O   -8.096900795   -6.03283893   0.05095368482
O   8.033953877   -6.03283893   0.05095368482
O   -0.03118296287   -6.032627866   0.05089136568
O   16.09967171   -6.032627866   0.05089136568
O   -12.12958001   -6.032446939   0.0511608925
O   4.001274665   -6.032446939   0.0511608925
Ti   -14.13746839   -6.029345413   -4.019079501
Ti   1.993386281   -6.029345413   -4.019079501
O   -14.03762433   -5.987000497   -6.059074878
O   2.093230339   -5.987000497   -6.059074878
O   -1.939051091   -5.970304157   -6.054071328
O   14.19180358   -5.970304157   -6.054071328
O   -9.999963296   -5.970127848   -6.034824425
O   6.130891376   -5.970127848   -6.034824425
O   -5.971881648   -5.969883303   -6.042321646
O   10.15897302   -5.969883303   -6.042321646
O   -5.967533419   -5.967685344   -1.976682867
O   10.16332125   -5.967685344   -1.976682867
O   -1.934473609   -5.967560197   -1.976713601
O   14.19638106   -5.967560197   -1.976713601
O   -9.999847062   -5.967398061   -1.976790874
O   6.13100761   -5.967398061   -1.976790874
O   -14.03226463   -5.967114457   -1.976757606
O   2.098590041   -5.967114457   -1.976757606
O   -15.98372374   -5.930064661   -4.019362294
O   0.1471309289   -5.930064661   -4.019362294
O   -3.872629784   -5.927077431   -4.012729065
O   12.25822489   -5.927077431   -4.012729065
O   -11.93918379   -5.924440327   -4.013191568
O   4.191670881   -5.924440327   -4.013191568
O   -7.901342253   -5.923658647   -4.00678766
O   8.22951242   -5.923658647   -4.00678766
Ti   -13.92499174   -5.878614487   -7.96613306
Ti   2.205862928   -5.878614487   -7.96613306
Ti   -1.840360861   -5.872997787   -7.954614704
Ti   14.29049381   -5.872997787   -7.954614704
Ti   -5.88587009   -5.872702258   -7.944437455
Ti   10.24498458   -5.872702258   -7.944437455
Ti   -1.83939566   -5.872692156   -0.07296133287
Ti   14.29145901   -5.872692156   -0.07296133287
Ti   -9.905020752   -5.87262429   -0.07346114982
Ti   6.22583392   -5.87262429   -0.07346114982
Ti   -5.872359873   -5.872587189   -0.07336639677
Ti   10.2584948   -5.872587189   -0.07336639677
Ti   -13.93764924   -5.872307935   -0.07295293837
Ti   2.193205433   -5.872307935   -0.07295293837
Ti   -9.918908507   -5.870389336   -7.935705766
Ti   6.211946166   -5.870389336   -7.935705766
O   -14.06664915   -4.088737618   -8.076037786
O   2.064205525   -4.088737618   -8.076037786
O   -10.06120484   -4.066751164   -8.057198918
O   6.06964983   -4.066751164   -8.057198918
O   -1.999797891   -4.064611965   0.0510128782
O   14.13105678   -4.064611965   0.0510128782
O   -10.0650741   -4.064381093   0.05090767276
O   6.065780567   -4.064381093   0.05090767276
O   -6.032359271   -4.064326199   0.05097876225
O   10.0984954   -4.064326199   0.05097876225
O   -14.09792115   -4.064152849   0.05086660562
O   2.032933524   -4.064152849   0.05086660562
O   -2.003956063   -4.063866283   -8.083447743
O   14.12689861   -4.063866283   -8.083447743
O   -6.043920074   -4.063772873   -8.070293017
O   10.0869346   -4.063772873   -8.070293017
Ba   -3.94435161   -3.944784583   -1.912324892
Ba   12.18650306   -3.944784583   -1.912324892
Ba   -7.977050739   -3.94465305   -1.912443001
Ba   8.153803934   -3.94465305   -1.912443001
Ba   -12.00965698   -3.944577322   -1.912669097
Ba   4.121197697   -3.944577322   -1.912669097
Ba   -16.04260972   -3.944565506   -1.912482874
Ba   0.08824495674   -3.944565506   -1.912482874
Ba   -3.943338148   -3.940531044   -6.111317206
Ba   12.18751652   -3.940531044   -6.111317206
Ba   -7.991822255   -3.937107703   -6.107466616
Ba   8.139032418   -3.937107703   -6.107466616
O   -14.00455743   -3.927775444   -4.007036222
O   2.126297239   -3.927775444   -4.007036222
Ba   -16.01051285   -3.912427189   -6.168135869
Ba   0.1203418217   -3.912427189   -6.168135869
Ba   -12.05915884   -3.90360412   -6.146891952
Ba   4.071695833   -3.90360412   -6.146891952
O   -1.900599465   -3.884753395   -4.020197108
O   14.23025521   -3.884753395   -4.020197108
O   -9.951864747   -3.880107239   -4.005413239
O   6.178989926   -3.880107239   -4.005413239
O   -5.918408759   -3.879317135   -4.007353856
O   10.21244591   -3.879317135   -4.007353856
Ti   -14.14490076   -2.044340819   -4.087589066
Ti   1.985953916   -2.044340819   -4.087589066
Ti   -1.996300962   -2.040216266   -4.013059627
Ti   14.13455371   -2.040216266   -4.013059627
Ti   -10.10480595   -2.032871627   -4.009147088
Ti   6.026048721   -2.032871627   -4.009147088
Ti   -6.046216337   -2.031584537   -4.007760238
Ti   10.08463834   -2.031584537   -4.007760238
O   -4.064068977   -2.000043724   0.05091994431
O   12.0667857   -2.000043724   0.05091994431
O   -8.096938376   -1.999921805   0.05100462001
O   8.033916296   -1.999921805   0.05100462001
O   -12.12971971   -1.999830656   0.05085668958
O   4.001134958   -1.999830656   0.05085668958
O   -0.03143321252   -1.999750331   0.05100466477
O   16.09942146   -1.999750331   0.05100466477
O   -4.083734448   -1.995001285   -8.089250045
O   12.04712022   -1.995001285   -8.089250045
O   -8.11118521   -1.987621072   -8.082249423
O   8.019669462   -1.987621072   -8.082249423
O   -12.08133361   -1.966032771   -8.103676957
O   4.04952106   -1.966032771   -8.103676957
O   -0.0548249133   -1.960941658   -8.090087448
O   16.07602976   -1.960941658   -8.090087448
O   -5.97309486   -1.937448833   -6.047593682
O   10.15775981   -1.937448833   -6.047593682
O   -1.934543274   -1.934869549   -1.976631404
O   14.1963114   -1.934869549   -1.976631404
O   -5.9671523   -1.934837206   -1.976667152
O   10.16370237   -1.934837206   -1.976667152
O   -14.03274228   -1.934667889   -1.976818386
O   2.098112392   -1.934667889   -1.976818386
O   -1.95159041   -1.934526211   -6.060825249
O   14.17926426   -1.934526211   -6.060825249
O   -9.999650645   -1.934496689   -1.976708956
O   6.131204027   -1.934496689   -1.976708956
O   -10.00624368   -1.934392222   -6.044360285
O   6.124610995   -1.934392222   -6.044360285
O   -14.03609711   -1.927571327   -5.920465347
O   2.094757562   -1.927571327   -5.920465347
O   -11.93529566   -1.909247278   -3.987811056
O   4.195559013   -1.909247278   -3.987811056
O   -16.03214738   -1.906780297   -3.995901959
O   0.09870729157   -1.906780297   -3.995901959
O   -7.895466246   -1.895875943   -4.005692203
O   8.235388426   -1.895875943   -4.005692203
O   -3.873377462   -1.891760695   -4.007798173
O   12.25747721   -1.891760695   -4.007798173
Ti   -5.872240359   -1.839766631   -0.07288608243
Ti   10.25861431   -1.839766631   -0.07288608243
Ti   -1.839682735   -1.839747383   -0.07327648984
Ti   14.29117194   -1.839747383   -0.07327648984
Ti   -9.905047743   -1.839698496   -0.0733873072
Ti   6.225806929   -1.839698496   -0.0733873072
Ti   -13.93781565   -1.83966211   -0.07309098259
Ti   2.193039018   -1.83966211   -0.07309098259
Ti   -5.890312912   -1.835388243   -7.947823939
Ti   10.24054176   -1.835388243   -7.947823939
Ti   -1.852815441   -1.828036273   -7.961256678
Ti   14.27803923   -1.828036273   -7.961256678
Ti   -9.931238429   -1.81928236   -7.950410358
Ti   6.199616243   -1.81928236   -7.950410358
O   -14.08455715   -1.812608577   -10.25086869
O   2.046297524   -1.812608577   -10.25086869
Ti   -13.88614918   -1.761794974   -8.429761215
Ti   2.244705493   -1.761794974   -8.429761215
H   -14.86672585   -1.335211279   -10.58462763
H   1.264128823   -1.335211279   -10.58462763
O   -6.032465304   -0.03167437162   0.05092867796
O   10.09838937   -0.03167437162   0.05092867796
O   -1.99979359   -0.03155143555   0.05072130009
O   14.13106108   -0.03155143555   0.05072130009
O   -10.06523195   -0.03146640457   0.05077003867
O   6.065622723   -0.03146640457   0.05077003867
O   -14.09776528   -0.03144643458   0.05063186943
O   2.033089389   -0.03144643458   0.05063186943
O   -6.045301224   -0.02118944553   -8.062618833
O   10.08555345   -0.02118944553   -8.062618833
O   -2.022442068   -0.01084049771   -8.078936443
O   14.1084126   -0.01084049771   -8.078936443
O   -10.07335695   -0.003280584743   -8.045478078
O   6.057497718   -0.003280584743   -8.045478078
Ba   -12.06949642   0.03524577752   -6.124840478
Ba   4.061358255   0.03524577752   -6.124840478
O   -14.07973784   0.04404208622   -8.061371597
O   2.051116829   0.04404208622   -8.061371597
Ba   -16.01228699   0.04502564049   -6.134502262
Ba   0.1185676853   0.04502564049   -6.134502262
Ba   -7.989535225   0.07778427815   -6.088846137
Ba   8.141319448   0.07778427815   -6.088846137
Ba   -3.946306783   0.07812105088   -6.093725026
Ba   12.18454789   0.07812105088   -6.093725026
Ba   -3.944379296   0.08795316652   -1.912658867
Ba   12.18647538   0.08795316652   -1.912658867
Ba   -12.00976976   0.08798741837   -1.91266426
Ba   4.12108491   0.08798741837   -1.91266426
Ba   -16.04257583   0.08807900412   -1.912669086
Ba   0.08827884323   0.08807900412   -1.912669086
Ba   -7.976866613   0.08808302191   -1.912772488
Ba   8.153988059   0.08808302191   -1.912772488
O   -9.963183921   0.1485555313   -3.997587947
O   6.167670752   0.1485555313   -3.997587947
O   -5.92412346   0.1565282817   -4.002969869
O   10.20673121   0.1565282817   -4.002969869
O   -1.896501771   0.1605604654   -4.011440498
O   14.2343529   0.1605604654   -4.011440498
O   -14.01369582   0.166155579   -3.987212052
O   2.117158855   0.166155579   -3.987212052
Ti   -10.10662969   1.991205585   -4.008910414
Ti   6.02422498   1.991205585   -4.008910414
Ti   -2.019937625   1.994908191   -4.011410569
Ti   14.11091705   1.994908191   -4.011410569
Ti   -14.13580482   1.997578963   -4.004489552
Ti   1.995049854   1.997578963   -4.004489552
Ti   -6.058800806   2.001099812   -4.005118607
Ti   10.07205387   2.001099812   -4.005118607
O   -4.064076925   2.032597081   0.05080885192
O   12.06677775   2.032597081   0.05080885192
O   -12.12935349   2.03264198   0.05077475129
O   4.001501184   2.03264198   0.05077475129
O   -8.096864227   2.032721958   0.05095410744
O   8.033990446   2.032721958   0.05095410744
O   -0.03131342358   2.0328023   0.05087843882
O   16.09954125   2.0328023   0.05087843882
O   -8.102288152   2.032927076   -8.047127486
O   8.02856652   2.032927076   -8.047127486
O   -4.076485265   2.036400913   -8.062982568
O   12.05436941   2.036400913   -8.062982568
O   -0.03918035067   2.040769911   -8.063844765
O   16.09167432   2.040769911   -8.063844765
O   -12.11993901   2.055841687   -8.030916149
O   4.010915659   2.055841687   -8.030916149
O   -10.00171692   2.095473221   -6.015984059
O   6.129137748   2.095473221   -6.015984059
O   -5.971254951   2.096664075   -6.028697759
O   10.15959972   2.096664075   -6.028697759
O   -1.940258965   2.097022005   -6.036392348
O   14.19059571   2.097022005   -6.036392348
O   -5.967125861   2.097762545   -1.976773379
O   10.16372881   2.097762545   -1.976773379
O   -1.93437893   2.097880077   -1.976785025
O   14.19647574   2.097880077   -1.976785025
O   -14.03231713   2.098042025   -1.976899511
O   2.098537545   2.098042025   -1.976899511
O   -9.999530148   2.098227352   -1.976906163
O   6.131324525   2.098227352   -1.976906163
O   -14.04352117   2.110333812   -6.028160691
O   2.0873335   2.110333812   -6.028160691
O   -11.94863553   2.132471191   -3.997196261
O   4.182219145   2.132471191   -3.997196261
O   -7.90578685   2.134490062   -3.997682859
O   8.225067822   2.134490062   -3.997682859
O   -3.875091788   2.141273462   -4.00244533
O   12.25576288   2.141273462   -4.00244533
O   -15.9847455   2.149108236   -3.999514624
O   0.1461091751   2.149108236   -3.999514624
Ti   -13.93159383   2.181107337   -7.931220766
Ti   2.199260843   2.181107337   -7.931220766
Ti   -9.91425349   2.18380037   -7.918850823
Ti   6.216601182   2.18380037   -7.918850823
Ti   -1.843964444   2.18444387   -7.934578477
Ti   14.28689023   2.18444387   -7.934578477
Ti   -5.882916236   2.186121907   -7.931145224
Ti   10.24793844   2.186121907   -7.931145224
Ti   -13.93755061   2.192644406   -0.07352053233
Ti   2.193304065   2.192644406   -0.07352053233
Ti   -1.839479792   2.19278705   -0.07296256083
Ti   14.29137488   2.19278705   -0.07296256083
Ti   -5.87221413   2.192815963   -0.07305665936
Ti   10.25864054   2.192815963   -0.07305665936
Ti   -9.904968198   2.192912733   -0.07312189576
Ti   6.225886474   2.192912733   -0.07312189576
O   -10.06160253   3.996563566   -8.04605486
O   6.069252141   3.996563566   -8.04605486
O   -6.042523013   3.998244435   -8.063539912
O   10.08833166   3.998244435   -8.063539912
O   -2.011912017   4.000317897   -8.070334875
O   14.11894266   4.000317897   -8.070334875
O   -14.09755325   4.000891242   0.05090340252
O   2.03330142   4.000891242   0.05090340252
O   -6.032393251   4.000891472   0.05080133535
O   10.09846142   4.000891472   0.05080133535
O   -1.999789654   4.000930994   0.05093195373
O   14.13106502   4.000930994   0.05093195373
O   -10.06526819   4.001039296   0.05085167571
O   6.065586481   4.001039296   0.05085167571
O   -14.10293949   4.005482138   -8.075481056
O   2.027915186   4.005482138   -8.075481056
