300
AboveBaSim
O   -5.924754573   -7.9072922   -4.00584504
O   10.2061001   -7.9072922   -4.00584504
O   -13.9907182   -7.906033383   -4.004707473
O   2.14013647   -7.906033383   -4.004707473
O   -1.894222382   -7.905644467   -4.01247466
O   14.23663229   -7.905644467   -4.01247466
O   -9.957617148   -7.905572506   -4.002278153
O   6.173237524   -7.905572506   -4.002278153
Ti   -6.06106702   -6.057329569   -4.012038865
Ti   10.06978765   -6.057329569   -4.012038865
Ti   -2.023381679   -6.056979693   -4.018882005
Ti   14.10747299   -6.056979693   -4.018882005
O   -12.1046471   -6.051427665   -8.059732924
O   4.02620757   -6.051427665   -8.059732924
Ti   -10.10448657   -6.050502918   -4.01513586
Ti   6.026368103   -6.050502918   -4.01513586
O   -8.100469327   -6.040532213   -8.070200251
O   8.030385346   -6.040532213   -8.070200251
O   -0.03324863778   -6.036444216   -8.082098576
O   16.09760603   -6.036444216   -8.082098576
O   -4.075829574   -6.033754108   -8.079310533
O   12.0550251   -6.033754108   -8.079310533
O   -4.064173517   -6.032919968   0.05069448698
O   12.06668116   -6.032919968   0.05069448698
O   -8.096900795   -6.03283893   0.05095368482
O   8.033953877   -6.03283893   0.05095368482
O   -0.03118296287   -6.032627866   0.05089136568
O   16.09967171   -6.032627866   0.05089136568
O   -12.12958001   -6.032446939   0.0511608925
O   4.001274665   -6.032446939   0.0511608925
Ti   -14.13711099   -6.030689059   -4.019230091
Ti   1.993743679   -6.030689059   -4.019230091
O   -14.03755096   -5.989522271   -6.057136049
O   2.093303715   -5.989522271   -6.057136049
O   -9.999556992   -5.970762036   -6.034498132
O   6.131297681   -5.970762036   -6.034498132
O   -1.939097269   -5.970404582   -6.053903538
O   14.1917574   -5.970404582   -6.053903538
O   -5.971772501   -5.970040627   -6.042320365
O   10.15908217   -5.970040627   -6.042320365
O   -5.967533419   -5.967685344   -1.976682867
O   10.16332125   -5.967685344   -1.976682867
O   -1.934473609   -5.967560197   -1.976713601
O   14.19638106   -5.967560197   -1.976713601
O   -9.999847062   -5.967398061   -1.976790874
O   6.13100761   -5.967398061   -1.976790874
O   -14.03226463   -5.967114457   -1.976757606
O   2.098590041   -5.967114457   -1.976757606
O   -15.98355948   -5.930377435   -4.01846922
O   0.1472951962   -5.930377435   -4.01846922
O   -3.872547756   -5.927049025   -4.012543849
O   12.25830692   -5.927049025   -4.012543849
O   -11.93912667   -5.924960325   -4.012530934
O   4.191728   -5.924960325   -4.012530934
O   -7.901342813   -5.923987728   -4.006597454
O   8.229511859   -5.923987728   -4.006597454
Ti   -13.9250062   -5.878844435   -7.964613276
Ti   2.205848474   -5.878844435   -7.964613276
Ti   -5.885810395   -5.872832267   -7.944552333
Ti   10.24504428   -5.872832267   -7.944552333
Ti   -1.83939566   -5.872692156   -0.07296133287
Ti   14.29145901   -5.872692156   -0.07296133287
Ti   -9.905020752   -5.87262429   -0.07346114982
Ti   6.22583392   -5.87262429   -0.07346114982
Ti   -5.872359873   -5.872587189   -0.07336639677
Ti   10.2584948   -5.872587189   -0.07336639677
Ti   -1.840153165   -5.872423781   -7.954515554
Ti   14.29070151   -5.872423781   -7.954515554
Ti   -13.93764924   -5.872307935   -0.07295293837
Ti   2.193205433   -5.872307935   -0.07295293837
Ti   -9.918510801   -5.870954722   -7.935584034
Ti   6.212343871   -5.870954722   -7.935584034
O   -14.06653072   -4.089498902   -8.066436225
O   2.064323951   -4.089498902   -8.066436225
O   -10.06049493   -4.067664768   -8.05665155
O   6.070359745   -4.067664768   -8.05665155
O   -1.999797891   -4.064611965   0.0510128782
O   14.13105678   -4.064611965   0.0510128782
O   -10.0650741   -4.064381093   0.05090767276
O   6.065780567   -4.064381093   0.05090767276
O   -6.032359271   -4.064326199   0.05097876225
O   10.0984954   -4.064326199   0.05097876225
O   -14.09792115   -4.064152849   0.05086660562
O   2.032933524   -4.064152849   0.05086660562
O   -6.044004617   -4.063950398   -8.070290223
O   10.08685006   -4.063950398   -8.070290223
O   -2.003908384   -4.063240457   -8.082394549
O   14.12694629   -4.063240457   -8.082394549
Ba   -3.94435161   -3.944784583   -1.912324892
Ba   12.18650306   -3.944784583   -1.912324892
Ba   -7.977050739   -3.94465305   -1.912443001
Ba   8.153803934   -3.94465305   -1.912443001
Ba   -12.00965698   -3.944577322   -1.912669097
Ba   4.121197697   -3.944577322   -1.912669097
Ba   -16.04260972   -3.944565506   -1.912482874
Ba   0.08824495674   -3.944565506   -1.912482874
Ba   -3.944136943   -3.940936388   -6.111135199
Ba   12.18671773   -3.940936388   -6.111135199
Ba   -7.992060366   -3.936975301   -6.108024904
Ba   8.138794307   -3.936975301   -6.108024904
O   -14.00422393   -3.926542124   -4.008714253
O   2.126630738   -3.926542124   -4.008714253
Ba   -16.01204446   -3.913922016   -6.164423896
Ba   0.1188102119   -3.913922016   -6.164423896
Ba   -12.05749068   -3.904962054   -6.145287461
Ba   4.073363992   -3.904962054   -6.145287461
O   -1.90042928   -3.884587723   -4.019142832
O   14.23042539   -3.884587723   -4.019142832
O   -9.951768763   -3.88038201   -4.005068095
O   6.17908591   -3.88038201   -4.005068095
O   -5.918709405   -3.879464354   -4.007218309
O   10.21214527   -3.879464354   -4.007218309
Ti   -14.14406881   -2.043969594   -4.088870579
Ti   1.986785862   -2.043969594   -4.088870579
Ti   -1.997958803   -2.039846903   -4.013422975
Ti   14.13289587   -2.039846903   -4.013422975
Ti   -10.10448553   -2.033063519   -4.00935693
Ti   6.026369145   -2.033063519   -4.00935693
Ti   -6.046780503   -2.031726553   -4.007556704
Ti   10.08407417   -2.031726553   -4.007556704
O   -4.064068977   -2.000043724   0.05091994431
O   12.0667857   -2.000043724   0.05091994431
O   -8.096938376   -1.999921805   0.05100462001
O   8.033916296   -1.999921805   0.05100462001
O   -12.12971971   -1.999830656   0.05085668958
O   4.001134958   -1.999830656   0.05085668958
O   -0.03143321252   -1.999750331   0.05100466477
O   16.09942146   -1.999750331   0.05100466477
O   -4.084633031   -1.995035293   -8.088367162
O   12.04622164   -1.995035293   -8.088367162
O   -8.112208177   -1.98791902   -8.081890004
O   8.018646496   -1.98791902   -8.081890004
O   -12.07994035   -1.966017306   -8.096528392
O   4.050914326   -1.966017306   -8.096528392
O   -0.05615577415   -1.959548055   -8.077542756
O   16.0746989   -1.959548055   -8.077542756
O   -5.973595774   -1.937500445   -6.047195645
O   10.1572589   -1.937500445   -6.047195645
O   -1.934543274   -1.934869549   -1.976631404
O   14.1963114   -1.934869549   -1.976631404
O   -5.9671523   -1.934837206   -1.976667152
O   10.16370237   -1.934837206   -1.976667152
O   -14.03274228   -1.934667889   -1.976818386
O   2.098112392   -1.934667889   -1.976818386
O   -9.999650645   -1.934496689   -1.976708956
O   6.131204027   -1.934496689   -1.976708956
O   -1.95546284   -1.9342416   -6.057739131
O   14.17539183   -1.9342416   -6.057739131
O   -10.00529525   -1.934158845   -6.042781857
O   6.125559418   -1.934158845   -6.042781857
O   -14.03529935   -1.925935426   -5.924940132
O   2.095555322   -1.925935426   -5.924940132
O   -11.93532794   -1.908963136   -3.987896367
O   4.195526728   -1.908963136   -3.987896367
O   -16.03003708   -1.905833822   -4.000464578
O   0.1008175889   -1.905833822   -4.000464578
O   -7.895714572   -1.895903056   -4.004894219
O   8.235140101   -1.895903056   -4.004894219
O   -3.874149737   -1.891978971   -4.006169812
O   12.25670493   -1.891978971   -4.006169812
O   -14.10904743   -1.84393499   -10.22185779
O   2.021807238   -1.84393499   -10.22185779
Ti   -5.872240359   -1.839766631   -0.07288608243
Ti   10.25861431   -1.839766631   -0.07288608243
Ti   -1.839682735   -1.839747383   -0.07327648984
Ti   14.29117194   -1.839747383   -0.07327648984
Ti   -9.905047743   -1.839698496   -0.0733873072
Ti   6.225806929   -1.839698496   -0.0733873072
Ti   -13.93781565   -1.83966211   -0.07309098259
Ti   2.193039018   -1.83966211   -0.07309098259
Ti   -5.891269312   -1.835549796   -7.947689761
Ti   10.23958536   -1.835549796   -7.947689761
Ti   -1.853881402   -1.827958745   -7.958540202
Ti   14.27697327   -1.827958745   -7.958540202
Ti   -9.933936954   -1.819181734   -7.949817164
Ti   6.196917718   -1.819181734   -7.949817164
Ti   -13.89140937   -1.762252012   -8.40746284
Ti   2.239445306   -1.762252012   -8.40746284
H   -14.86094747   -1.318421627   -10.55756444
H   1.269907204   -1.318421627   -10.55756444
O   -6.032465304   -0.03167437162   0.05092867796
O   10.09838937   -0.03167437162   0.05092867796
O   -1.99979359   -0.03155143555   0.05072130009
O   14.13106108   -0.03155143555   0.05072130009
O   -10.06523195   -0.03146640457   0.05077003867
O   6.065622723   -0.03146640457   0.05077003867
O   -14.09776528   -0.03144643458   0.05063186943
O   2.033089389   -0.03144643458   0.05063186943
O   -6.045643898   -0.02112041273   -8.062393066
O   10.08521077   -0.02112041273   -8.062393066
O   -2.022973046   -0.01068009249   -8.077465772
O   14.10788163   -0.01068009249   -8.077465772
O   -10.07338736   -0.002891550469   -8.045159358
O   6.057467316   -0.002891550469   -8.045159358
Ba   -12.06737157   0.0371687847   -6.122137124
Ba   4.063483106   0.0371687847   -6.122137124
O   -14.08094185   0.0459852735   -8.05950589
O   2.049912821   0.0459852735   -8.05950589
Ba   -16.01452046   0.04721155115   -6.130849765
Ba   0.1163342096   0.04721155115   -6.130849765
Ba   -7.989816606   0.07732474075   -6.089220316
Ba   8.141038066   0.07732474075   -6.089220316
Ba   -3.947469282   0.07838476494   -6.093312364
Ba   12.18338539   0.07838476494   -6.093312364
Ba   -3.944379296   0.08795316652   -1.912658867
Ba   12.18647538   0.08795316652   -1.912658867
Ba   -12.00976976   0.08798741837   -1.91266426
Ba   4.12108491   0.08798741837   -1.91266426
Ba   -16.04257583   0.08807900412   -1.912669086
Ba   0.08827884323   0.08807900412   -1.912669086
Ba   -7.976866613   0.08808302191   -1.912772488
Ba   8.153988059   0.08808302191   -1.912772488
O   -9.963065161   0.1489527141   -3.997408812
O   6.167789512   0.1489527141   -3.997408812
O   -5.924411486   0.1566447448   -4.002897061
O   10.20644319   0.1566447448   -4.002897061
O   -1.896965371   0.1606117031   -4.010443449
O   14.2338893   0.1606117031   -4.010443449
O   -14.01283654   0.1665196943   -3.987439416
O   2.118018134   0.1665196943   -3.987439416
Ti   -10.10598923   1.991747567   -4.008278354
Ti   6.024865441   1.991747567   -4.008278354
Ti   -2.020500505   1.995383725   -4.010832023
Ti   14.11035417   1.995383725   -4.010832023
Ti   -14.13552705   1.998109348   -4.0038758
Ti   1.995327626   1.998109348   -4.0038758
Ti   -6.059024161   2.001205958   -4.005023613
Ti   10.07183051   2.001205958   -4.005023613
O   -4.064076925   2.032597081   0.05080885192
O   12.06677775   2.032597081   0.05080885192
O   -12.12935349   2.03264198   0.05077475129
O   4.001501184   2.03264198   0.05077475129
O   -8.096864227   2.032721958   0.05095410744
O   8.033990446   2.032721958   0.05095410744
O   -0.03131342358   2.0328023   0.05087843882
O   16.09954125   2.0328023   0.05087843882
O   -8.10211042   2.033093317   -8.047331829
O   8.028744252   2.033093317   -8.047331829
O   -4.076558501   2.036527519   -8.062591354
O   12.05429617   2.036527519   -8.062591354
O   -0.03927128675   2.041223113   -8.063166456
O   16.09158339   2.041223113   -8.063166456
O   -12.11996567   2.056002893   -8.030294433
O   4.010888998   2.056002893   -8.030294433
O   -10.0011261   2.095884991   -6.015743376
O   6.129728567   2.095884991   -6.015743376
O   -5.971469907   2.09695457   -6.028511034
O   10.15938477   2.09695457   -6.028511034
O   -1.940492207   2.097361491   -6.035620688
O   14.19036246   2.097361491   -6.035620688
O   -5.967125861   2.097762545   -1.976773379
O   10.16372881   2.097762545   -1.976773379
O   -1.93437893   2.097880077   -1.976785025
O   14.19647574   2.097880077   -1.976785025
O   -14.03231713   2.098042025   -1.976899511
O   2.098537545   2.098042025   -1.976899511
O   -9.999530148   2.098227352   -1.976906163
O   6.131324525   2.098227352   -1.976906163
O   -14.04312308   2.111818574   -6.026964256
O   2.087731592   2.111818574   -6.026964256
O   -11.94816571   2.133095201   -3.996809387
O   4.182688966   2.133095201   -3.996809387
O   -7.905970462   2.13479408   -3.997332007
O   8.22488421   2.13479408   -3.997332007
O   -3.87537199   2.1414065   -4.002107232
O   12.25548268   2.1414065   -4.002107232
O   -15.98463143   2.14902384   -3.999008161
O   0.146223238   2.14902384   -3.999008161
Ti   -13.93159057   2.182121601   -7.929662763
Ti   2.199264102   2.182121601   -7.929662763
Ti   -9.914048174   2.183909426   -7.918563536
Ti   6.216806499   2.183909426   -7.918563536
Ti   -1.843976653   2.184468242   -7.934064535
Ti   14.28687802   2.184468242   -7.934064535
Ti   -5.883018294   2.186213912   -7.931067105
Ti   10.24783638   2.186213912   -7.931067105
Ti   -13.93755061   2.192644406   -0.07352053233
Ti   2.193304065   2.192644406   -0.07352053233
Ti   -1.839479792   2.19278705   -0.07296256083
Ti   14.29137488   2.19278705   -0.07296256083
Ti   -5.87221413   2.192815963   -0.07305665936
Ti   10.25864054   2.192815963   -0.07305665936
Ti   -9.904968198   2.192912733   -0.07312189576
Ti   6.225886474   2.192912733   -0.07312189576
O   -10.06126968   3.996706031   -8.045903666
O   6.069584993   3.996706031   -8.045903666
O   -6.042497664   3.998287438   -8.063717376
O   10.08835701   3.998287438   -8.063717376
O   -2.012011009   4.000192505   -8.070054241
O   14.11884366   4.000192505   -8.070054241
O   -14.09755325   4.000891242   0.05090340252
O   2.03330142   4.000891242   0.05090340252
O   -6.032393251   4.000891472   0.05080133535
O   10.09846142   4.000891472   0.05080133535
O   -1.999789654   4.000930994   0.05093195373
O   14.13106502   4.000930994   0.05093195373
O   -10.06526819   4.001039296   0.05085167571
O   6.065586481   4.001039296   0.05085167571
O   -14.1027163   4.006282265   -8.075162557
O   2.028138373   4.006282265   -8.075162557
