12
benzene
C	9.33997581          7.54077367          5.29177100
C	6.53533718          7.54077367          5.29177100
C               8.63881616          8.75521783          5.29177100
C               7.23649684          8.75521783          5.29177100
C               8.63881616          6.32632952          5.29177100
C               7.23649684          6.32632952          5.29177100
H             10.42478887          7.54077367          5.29177100
H              5.45052413          7.54077367          5.29177100
H              9.18122268          9.69469349          5.29177100
H              6.69409031          9.69469349          5.29177100
H              9.18122268          5.38685386          5.29177100
H              6.69409031          5.38685386          5.29177100
