300
TryAgain TightConv smallslab
O   -5.919143275   -7.916676818   -3.99429232
O   10.2117114   -7.916676818   -3.99429232
O   -9.959582759   -7.913489604   -3.99593973
O   6.171271913   -7.913489604   -3.99593973
O   -1.886967261   -7.903989057   -4.01523935
O   14.24388741   -7.903989057   -4.01523935
O   -14.000056   -7.897192292   -4.017356661
O   2.130798672   -7.897192292   -4.017356661
Ti   -6.05467406   -6.068268848   -4.005807553
Ti   10.07618061   -6.068268848   -4.005807553
Ti   -2.014893067   -6.061114535   -4.022623213
Ti   14.11596161   -6.061114535   -4.022623213
Ti   -10.10601315   -6.059405996   -4.013505385
Ti   6.024841518   -6.059405996   -4.013505385
O   -8.073575843   -6.052011498   -8.045610694
O   8.057278829   -6.052011498   -8.045610694
O   -12.10626477   -6.046914657   -8.063975046
O   4.024589905   -6.046914657   -8.063975046
O   -4.045047833   -6.046724638   -8.055041323
O   12.08580684   -6.046724638   -8.055041323
O   -4.064173517   -6.032919968   0.05069448698
O   12.06668116   -6.032919968   0.05069448698
O   -8.096900795   -6.03283893   0.05095368482
O   8.033953877   -6.03283893   0.05095368482
O   -0.03118296287   -6.032627866   0.05089136568
O   16.09967171   -6.032627866   0.05089136568
O   -12.12958001   -6.032446939   0.0511608925
O   4.001274665   -6.032446939   0.0511608925
O   -0.02669319233   -6.026819051   -8.079602906
O   16.10416148   -6.026819051   -8.079602906
Ti   -14.1446468   -6.018986348   -4.023555488
Ti   1.986207868   -6.018986348   -4.023555488
O   -9.996654384   -5.983018072   -6.029419984
O   6.134200288   -5.983018072   -6.029419984
O   -5.95838986   -5.982183603   -6.026885942
O   10.17246481   -5.982183603   -6.026885942
O   -5.967533419   -5.967685344   -1.976682867
O   10.16332125   -5.967685344   -1.976682867
O   -1.934473609   -5.967560197   -1.976713601
O   14.19638106   -5.967560197   -1.976713601
O   -9.999847062   -5.967398061   -1.976790874
O   6.13100761   -5.967398061   -1.976790874
O   -14.03909733   -5.967251806   -6.07225281
O   2.091757347   -5.967251806   -6.07225281
O   -14.03226463   -5.967114457   -1.976757606
O   2.098590041   -5.967114457   -1.976757606
O   -1.929390909   -5.966470732   -6.051071545
O   14.20146376   -5.966470732   -6.051071545
O   -7.89697161   -5.937453321   -4.001334095
O   8.233883062   -5.937453321   -4.001334095
O   -3.869978932   -5.931506189   -4.006484971
O   12.26087574   -5.931506189   -4.006484971
O   -11.93808167   -5.928858067   -4.017065928
O   4.192773007   -5.928858067   -4.017065928
O   -15.99060939   -5.913941973   -4.035827726
O   0.1402452872   -5.913941973   -4.035827726
Ti   -5.864576893   -5.887433669   -7.933722305
Ti   10.26627778   -5.887433669   -7.933722305
Ti   -9.892105306   -5.882875825   -7.93188123
Ti   6.238749367   -5.882875825   -7.93188123
Ti   -1.83939566   -5.872692156   -0.07296133287
Ti   14.29145901   -5.872692156   -0.07296133287
Ti   -9.905020752   -5.87262429   -0.07346114982
Ti   6.22583392   -5.87262429   -0.07346114982
Ti   -5.872359873   -5.872587189   -0.07336639677
Ti   10.2584948   -5.872587189   -0.07336639677
Ti   -13.93764924   -5.872307935   -0.07295293837
Ti   2.193205433   -5.872307935   -0.07295293837
Ti   -13.91745681   -5.871336542   -7.977934467
Ti   2.213397864   -5.871336542   -7.977934467
Ti   -1.837604753   -5.868999456   -7.949718651
Ti   14.29324992   -5.868999456   -7.949718651
O   -5.998740719   -4.085580927   -8.050808942
O   10.13211395   -4.085580927   -8.050808942
O   -10.00888562   -4.082603075   -8.037031775
O   6.121969055   -4.082603075   -8.037031775
O   -14.04074235   -4.064748858   -8.108051005
O   2.090112326   -4.064748858   -8.108051005
O   -1.999797891   -4.064611965   0.0510128782
O   14.13105678   -4.064611965   0.0510128782
O   -10.0650741   -4.064381093   0.05090767276
O   6.065780567   -4.064381093   0.05090767276
O   -6.032359271   -4.064326199   0.05097876225
O   10.0984954   -4.064326199   0.05097876225
O   -14.09792115   -4.064152849   0.05086660562
O   2.032933524   -4.064152849   0.05086660562
O   -1.97030227   -4.051658137   -8.070249995
O   14.1605524   -4.051658137   -8.070249995
Ba   -7.986600991   -3.964638125   -6.083897556
Ba   8.144253681   -3.964638125   -6.083897556
Ba   -3.962192221   -3.960116351   -6.084514704
Ba   12.16866245   -3.960116351   -6.084514704
Ba   -3.94435161   -3.944784583   -1.912324892
Ba   12.18650306   -3.944784583   -1.912324892
Ba   -7.977050739   -3.94465305   -1.912443001
Ba   8.153803934   -3.94465305   -1.912443001
Ba   -12.00965698   -3.944577322   -1.912669097
Ba   4.121197697   -3.944577322   -1.912669097
Ba   -16.04260972   -3.944565506   -1.912482874
Ba   0.08824495674   -3.944565506   -1.912482874
O   -14.01085273   -3.938783018   -3.987491596
O   2.120001945   -3.938783018   -3.987491596
Ba   -12.05093548   -3.918753358   -6.131253895
Ba   4.079919196   -3.918753358   -6.131253895
O   -9.947954664   -3.887947717   -3.998915002
O   6.182900008   -3.887947717   -3.998915002
Ba   -16.0103279   -3.882192124   -6.215110294
Ba   0.1205267756   -3.882192124   -6.215110294
O   -5.921497221   -3.880126452   -3.996946709
O   10.20935745   -3.880126452   -3.996946709
O   -1.905687609   -3.877342512   -4.029454676
O   14.22516706   -3.877342512   -4.029454676
Ti   -14.15731931   -2.044774557   -4.079913955
Ti   1.973535362   -2.044774557   -4.079913955
Ti   -10.10213605   -2.039516273   -3.999449178
Ti   6.028718621   -2.039516273   -3.999449178
Ti   -1.999598312   -2.037696613   -4.005774155
Ti   14.13125636   -2.037696613   -4.005774155
Ti   -6.052979357   -2.032186492   -3.997001607
Ti   10.07787531   -2.032186492   -3.997001607
O   -3.994753994   -2.021824654   -8.079191592
O   12.13610068   -2.021824654   -8.079191592
O   -7.955021198   -2.019164609   -8.054207314
O   8.175833475   -2.019164609   -8.054207314
O   -4.064068977   -2.000043724   0.05091994431
O   12.0667857   -2.000043724   0.05091994431
O   -8.096938376   -1.999921805   0.05100462001
O   8.033916296   -1.999921805   0.05100462001
O   -12.12971971   -1.999830656   0.05085668958
O   4.001134958   -1.999830656   0.05085668958
O   -0.03143321252   -1.999750331   0.05100466477
O   16.09942146   -1.999750331   0.05100466477
O   -11.884891   -1.983549472   -8.08901711
O   4.245963674   -1.983549472   -8.08901711
O   -9.961058439   -1.944770892   -6.026869787
O   6.169796233   -1.944770892   -6.026869787
O   -5.974356602   -1.944487773   -6.034639631
O   10.15649807   -1.944487773   -6.034639631
O   -1.951343902   -1.93990899   -6.095196974
O   14.17951077   -1.93990899   -6.095196974
O   -1.934543274   -1.934869549   -1.976631404
O   14.1963114   -1.934869549   -1.976631404
O   -5.9671523   -1.934837206   -1.976667152
O   10.16370237   -1.934837206   -1.976667152
O   -14.03274228   -1.934667889   -1.976818386
O   2.098112392   -1.934667889   -1.976818386
O   -9.999650645   -1.934496689   -1.976708956
O   6.131204027   -1.934496689   -1.976708956
O   -14.02694267   -1.934333326   -5.887018414
O   2.103912004   -1.934333326   -5.887018414
O   -11.92823268   -1.91855347   -3.988004815
O   4.202621996   -1.91855347   -3.988004815
O   -16.04934342   -1.911804502   -4.005431495
O   0.08151125566   -1.911804502   -4.005431495
O   -7.897077608   -1.89764392   -3.990490699
O   8.233777064   -1.89764392   -3.990490699
O   -3.875508087   -1.888263487   -4.014780228
O   12.25534659   -1.888263487   -4.014780228
O   -0.007590895096   -1.848672437   -8.337201621
O   16.12326378   -1.848672437   -8.337201621
Ti   -2.171413933   -1.843562077   -7.963655558
Ti   13.95944074   -1.843562077   -7.963655558
Ti   -13.82309064   -1.843136786   -8.600938907
Ti   2.30776403   -1.843136786   -8.600938907
Ti   -5.872240359   -1.839766631   -0.07288608243
Ti   10.25861431   -1.839766631   -0.07288608243
Ti   -1.839682735   -1.839747383   -0.07327648984
Ti   14.29117194   -1.839747383   -0.07327648984
Ti   -9.905047743   -1.839698496   -0.0733873072
Ti   6.225806929   -1.839698496   -0.0733873072
Ti   -13.93781565   -1.83966211   -0.07309098259
Ti   2.193039018   -1.83966211   -0.07309098259
Ti   -6.091877298   -1.839280066   -7.923226653
Ti   10.03897737   -1.839280066   -7.923226653
O   -13.8383814   -1.831336577   -10.24028588
O   2.292473276   -1.831336577   -10.24028588
Ti   -10.01873386   -1.827470561   -7.925185894
Ti   6.112120809   -1.827470561   -7.925185894
H   -16.12934864   -1.116858524   -8.989775941
H   0.001506029421   -1.116858524   -8.989775941
O   -6.012867551   -0.04303534507   -8.041960393
O   10.11798712   -0.04303534507   -8.041960393
O   -6.032465304   -0.03167437162   0.05092867796
O   10.09838937   -0.03167437162   0.05092867796
O   -1.99979359   -0.03155143555   0.05072130009
O   14.13106108   -0.03155143555   0.05072130009
O   -10.06523195   -0.03146640457   0.05077003867
O   6.065622723   -0.03146640457   0.05077003867
O   -14.09776528   -0.03144643458   0.05063186943
O   2.033089389   -0.03144643458   0.05063186943
O   -2.048102744   -0.02977125984   -8.10698474
O   14.08275193   -0.02977125984   -8.10698474
O   -9.985528594   -0.02806609864   -8.019701194
O   6.145326079   -0.02806609864   -8.019701194
Ba   -16.02365335   0.01531117255   -6.192241605
Ba   0.1072013258   0.01531117255   -6.192241605
Ba   -12.07941   0.01926448209   -6.114148572
Ba   4.051444672   0.01926448209   -6.114148572
Ba   -3.944379296   0.08795316652   -1.912658867
Ba   12.18647538   0.08795316652   -1.912658867
Ba   -12.00976976   0.08798741837   -1.91266426
Ba   4.12108491   0.08798741837   -1.91266426
Ba   -16.04257583   0.08807900412   -1.912669086
Ba   0.08827884323   0.08807900412   -1.912669086
Ba   -7.976866613   0.08808302191   -1.912772488
Ba   8.153988059   0.08808302191   -1.912772488
Ba   -8.006990085   0.0936797643   -6.059877572
Ba   8.123864587   0.0936797643   -6.059877572
Ba   -3.997501216   0.100706238   -6.081123532
Ba   12.13335346   0.100706238   -6.081123532
O   -14.03927826   0.1145943885   -8.11229771
O   2.091576411   0.1145943885   -8.11229771
O   -9.964579744   0.1517793306   -3.997636945
O   6.166274928   0.1517793306   -3.997636945
O   -14.01672269   0.153515211   -3.979382729
O   2.11413198   0.153515211   -3.979382729
O   -1.90102482   0.1544328365   -4.020273654
O   14.22982985   0.1544328365   -4.020273654
O   -5.931739311   0.1610213425   -3.99945211
O   10.19911536   0.1610213425   -3.99945211
Ti   -14.14310984   1.983733587   -4.027268359
Ti   1.987744829   1.983733587   -4.027268359
Ti   -2.016504535   1.988537154   -4.025902938
Ti   14.11435014   1.988537154   -4.025902938
Ti   -10.11114833   1.997191349   -4.005564828
Ti   6.019706345   1.997191349   -4.005564828
Ti   -6.060823934   2.012022837   -3.999034555
Ti   10.07003074   2.012022837   -3.999034555
O   -0.06909126056   2.0226028   -8.076992093
O   16.06176341   2.0226028   -8.076992093
O   -8.071949146   2.022795534   -8.046002532
O   8.058905526   2.022795534   -8.046002532
O   -4.064076925   2.032597081   0.05080885192
O   12.06677775   2.032597081   0.05080885192
O   -12.12935349   2.03264198   0.05077475129
O   4.001501184   2.03264198   0.05077475129
O   -8.096864227   2.032721958   0.05095410744
O   8.033990446   2.032721958   0.05095410744
O   -0.03131342358   2.0328023   0.05087843882
O   16.09954125   2.0328023   0.05087843882
O   -12.04569444   2.041390493   -8.012809009
O   4.085160232   2.041390493   -8.012809009
O   -4.098449652   2.042206796   -8.070910945
O   12.03240502   2.042206796   -8.070910945
O   -14.02940247   2.083322807   -6.030502813
O   2.101452203   2.083322807   -6.030502813
O   -1.951157496   2.084818752   -6.044642105
O   14.17969718   2.084818752   -6.044642105
Ti   -13.87407075   2.089854154   -7.958334528
Ti   2.256783925   2.089854154   -7.958334528
O   -5.967125861   2.097762545   -1.976773379
O   10.16372881   2.097762545   -1.976773379
O   -1.93437893   2.097880077   -1.976785025
O   14.19647574   2.097880077   -1.976785025
O   -14.03231713   2.098042025   -1.976899511
O   2.098537545   2.098042025   -1.976899511
O   -9.999530148   2.098227352   -1.976906163
O   6.131324525   2.098227352   -1.976906163
O   -5.977491536   2.105742126   -6.026056149
O   10.15336314   2.105742126   -6.026056149
O   -9.980067174   2.107401807   -6.013586317
O   6.150787499   2.107401807   -6.013586317
O   -11.94877446   2.126203524   -4.003149862
O   4.182080208   2.126203524   -4.003149862
O   -15.98886892   2.136340529   -4.01430309
O   0.141985748   2.136340529   -4.01430309
O   -3.875480445   2.138914562   -4.00227516
O   12.25537423   2.138914562   -4.00227516
O   -7.906357418   2.141360947   -3.98964392
O   8.224497255   2.141360947   -3.98964392
Ti   -1.859180392   2.183371557   -7.951235033
Ti   14.27167428   2.183371557   -7.951235033
Ti   -13.93755061   2.192644406   -0.07352053233
Ti   2.193304065   2.192644406   -0.07352053233
Ti   -1.839479792   2.19278705   -0.07296256083
Ti   14.29137488   2.19278705   -0.07296256083
Ti   -5.87221413   2.192815963   -0.07305665936
Ti   10.25864054   2.192815963   -0.07305665936
Ti   -9.904968198   2.192912733   -0.07312189576
Ti   6.225886474   2.192912733   -0.07312189576
Ti   -9.898808177   2.194265923   -7.913226951
Ti   6.232046495   2.194265923   -7.913226951
Ti   -5.904091022   2.211439573   -7.93178768
Ti   10.22676365   2.211439573   -7.93178768
O   -14.08042048   3.973379286   -8.091778629
O   2.050434192   3.973379286   -8.091778629
O   -10.03632066   3.997938876   -8.050822887
O   6.094534008   3.997938876   -8.050822887
O   -14.09755325   4.000891242   0.05090340252
O   2.03330142   4.000891242   0.05090340252
O   -6.032393251   4.000891472   0.05080133535
O   10.09846142   4.000891472   0.05080133535
O   -1.999789654   4.000930994   0.05093195373
O   14.13106502   4.000930994   0.05093195373
O   -10.06526819   4.001039296   0.05085167571
O   6.065586481   4.001039296   0.05085167571
O   -2.015651335   4.001442835   -8.071651444
O   14.11520334   4.001442835   -8.071651444
O   -6.048184811   4.023726594   -8.046058231
O   10.08266986   4.023726594   -8.046058231
