840
RIGID BigSlab
Ba   0   0   -2.03146445
Ba   0.007081126214   -0.05543354981   -6.197898525
O   -1.96183568   -0.07903626032   -8.10874312
O   0.01850310575   -1.978576441   -4.061001626
O   -1.980595068   0.07931090788   -4.069911272
O   2.016356834   0   0.0000009908377482
O   0   2.016356834   0.0000009908377482
O   0   -2.016356834   0.0000009908377482
O   -2.016356834   0   0.0000009908377482
O   0.09438933882   2.040974723   -8.105444148
O   2.042862406   0.08056086805   -4.060148399
O   0.04857117452   -2.045660158   -8.177904183
O   2.05492702   0.1294905121   -8.093931329
O   0.06301093652   2.058985246   -4.06607163
Ti   1.911461532   1.915949584   -7.999417202
Ti   1.916360821   1.915110611   -4.066504611
O   -1.989687623   -2.009217613   -6.101463567
Ti   -2.105881667   -1.890606016   -8.006571409
O   -1.977273032   2.03397326   -6.082244824
Ti   -2.098558414   1.920908966   -4.052448578
O   2.016356834   2.016356834   -2.018618491
Ti   2.016356834   2.016356834   0
O   2.016356834   -2.016356834   -2.018618491
Ti   2.016356834   -2.016356834   0
O   -2.016356834   2.016356834   -2.018618491
Ti   -2.016356834   2.016356834   0
O   -2.016356834   -2.016356834   -2.018618491
Ti   -2.016356834   -2.016356834   0
O   2.037889078   -1.996440241   -5.984731912
Ti   1.914859562   -2.115653825   -4.149525026
Ti   1.853458384   -2.191341887   -8.462796844
O   2.039938299   2.056037469   -6.083065219
O   2.090152489   -2.013837015   -10.26623392
Ti   -2.077931951   -2.114874757   -4.051740566
Ti   -2.093787197   2.144874787   -7.979670507
H   3.007662419   -2.144199459   -10.56957688
Ba   3.97560557   -0.06864158556   -6.204508387
Ba   0.04888319646   -4.00622682   -6.208134893
Ba   -0.01822558568   4.023389847   -6.152260754
Ba   4.032713668   0   -2.03146445
Ba   0   4.032713668   -2.03146445
Ba   0   -4.032713668   -2.03146445
Ba   -4.032713668   0   -2.03146445
Ba   -4.038632037   0.02362253211   -6.146941068
O   -3.904609172   1.985167324   -8.103764759
O   -1.957285314   3.96249834   -8.103681311
O   -3.961117034   -1.969691861   -4.065092522
O   -3.931564879   -2.050959898   -8.11949949
O   -2.013350471   -3.968097145   -4.067166826
O   -3.956969562   2.063074618   -4.063889126
O   2.011459217   -4.003965351   -4.063074279
O   2.018393328   -4.009543273   -8.116416021
O   4.032713668   2.016356834   0.0000009908377482
O   2.016356834   4.032713668   0.0000009908377482
O   4.032713668   -2.016356834   0.0000009908377482
O   -2.016356834   4.032713668   0.0000009908377482
O   2.016356834   -4.032713668   0.0000009908377482
O   -4.032713668   2.016356834   0.0000009908377482
O   -2.016356834   -4.032713668   0.0000009908377482
O   -4.032713668   -2.016356834   0.0000009908377482
O   4.106193011   -1.982028458   -4.05992681
O   -1.977918403   4.118031736   -4.064796004
O   4.098391172   2.053455586   -4.069093381
O   -2.015768098   -4.126137773   -8.112944758
O   2.051698524   4.118639378   -4.065902447
O   4.142378844   2.073443211   -8.106129452
O   4.188891203   -1.986050303   -8.130325283
O   2.079887164   4.156822655   -8.112912524
Ba   -3.999576922   -3.999393854   -6.156063585
Ba   3.999558078   4.009455597   -6.160210869
Ba   4.000048678   -4.028683548   -6.199004646
Ba   4.032713668   4.032713668   -2.03146445
Ba   4.032713668   -4.032713668   -2.03146445
Ba   -4.032713668   4.032713668   -2.03146445
Ba   -4.032713668   -4.032713668   -2.03146445
Ba   -4.046194687   4.056468784   -6.144272567
O   -5.96584264   -0.06263566953   -8.102214412
O   -6.009585773   0.07984578363   -4.064112561
O   -0.04737555799   -6.01067009   -4.071598428
O   6.049070502   0   0.0000009908377482
O   0   6.049070502   0.0000009908377482
O   0   -6.049070502   0.0000009908377482
O   -6.049070502   0   0.0000009908377482
O   0.0935817875   6.062492334   -8.096741269
O   -0.07537730501   -6.066442406   -8.102098247
O   6.08301637   0.07156279825   -4.07036836
O   0.0647779547   6.093597951   -4.065718424
O   6.116622655   0.1192645536   -8.107502282
Ti   -1.887326943   -5.932759711   -7.98950548
Ti   5.941804473   1.914972247   -4.063275181
Ti   5.94701483   1.925841413   -7.982191752
Ti   1.908442576   5.966677692   -7.98547116
Ti   1.916341952   5.971828178   -4.052082769
Ti   5.945486232   -2.114664406   -4.059740526
O   -6.004143204   -1.990080136   -6.083047442
Ti   -2.109444572   5.970146129   -4.048978753
O   -6.003628558   2.04339252   -6.077098387
Ti   5.982927067   -2.135193887   -7.988158936
O   -2.023822484   -6.033766701   -6.080934711
O   2.022094569   -6.043971241   -6.092971495
O   6.049070502   2.016356834   -2.018618491
Ti   6.049070502   2.016356834   0
O   2.016356834   6.049070502   -2.018618491
Ti   2.016356834   6.049070502   0
O   6.049070502   -2.016356834   -2.018618491
Ti   6.049070502   -2.016356834   0
O   -2.016356834   6.049070502   -2.018618491
Ti   -2.016356834   6.049070502   0
O   2.016356834   -6.049070502   -2.018618491
Ti   2.016356834   -6.049070502   0
O   -6.049070502   2.016356834   -2.018618491
Ti   -6.049070502   2.016356834   0
O   -2.016356834   -6.049070502   -2.018618491
Ti   -2.016356834   -6.049070502   0
O   -6.049070502   -2.016356834   -2.018618491
Ti   -6.049070502   -2.016356834   0
O   -1.988417798   6.070102329   -6.080809805
Ti   -6.114915903   -1.876260809   -7.981058257
O   6.092327848   -1.990727336   -6.084328722
Ti   -1.888161604   -6.128923684   -4.064058951
O   6.080291274   2.053266642   -6.080204184
O   2.049243647   6.086319249   -6.08516576
Ti   -6.14069518   1.930630469   -4.050525034
Ti   2.141583096   -6.11685943   -4.058978448
Ti   -6.132512163   -2.100569092   -4.050648752
Ti   -6.119256513   2.147499209   -7.980184428
Ti   2.164880587   -6.149615376   -7.99421909
Ti   -2.113515663   6.168245279   -7.979217525
O   -5.962247186   3.963347545   -8.104344877
O   -3.929657811   6.00860429   -8.100385018
O   3.98256525   -6.011768208   -8.103990238
O   3.995503881   -6.008211426   -4.068623746
O   -6.037817732   -3.958984687   -4.065313358
O   6.05790386   -3.964307893   -4.069459817
O   -4.08437037   -6.003599327   -4.062346657
O   6.095731644   -3.953123681   -8.104738457
O   6.049070502   4.032713668   0.0000009908377482
O   4.032713668   6.049070502   0.0000009908377482
O   6.049070502   -4.032713668   0.0000009908377482
O   -4.032713668   6.049070502   0.0000009908377482
O   4.032713668   -6.049070502   0.0000009908377482
O   -6.049070502   4.032713668   0.0000009908377482
O   -4.032713668   -6.049070502   0.0000009908377482
O   -6.049070502   -4.032713668   0.0000009908377482
O   -3.966114296   6.094266459   -4.060792405
O   -6.009975368   4.111646352   -4.060637744
O   -6.01904669   -4.106531882   -8.104256841
O   -4.098499086   -6.088984789   -8.10308558
O   6.086276658   4.104607443   -4.063701636
O   4.1082034   6.08776097   -4.067381503
O   6.121804903   4.121853246   -8.104754532
O   4.170951864   6.095097601   -8.102097531
Ba   8.044178113   0.0136600965   -6.162551686
Ba   0.02520426282   -8.058714416   -6.168388502
Ba   8.065427336   0   -2.03146445
Ba   0   8.065427336   -2.03146445
Ba   0   -8.065427336   -2.03146445
Ba   -8.065427336   0   -2.03146445
Ba   0.02520426282   8.072140257   -6.168388502
Ba   -8.086676559   0.0136600965   -6.162551686
O   -7.934394712   -1.998493583   -8.108815492
O   -7.925917576   2.032444743   -8.100615244
O   -7.98662242   -1.969407879   -4.067282587
O   -2.00633602   7.982063887   -8.108438387
O   -2.003191649   -7.991367722   -4.064632734
O   2.045818801   -7.98361487   -8.120568633
O   2.036534869   -7.993703217   -4.062488255
O   -7.990163615   2.059287484   -4.068262235
O   8.065427336   2.016356834   0.0000009908377482
O   2.016356834   8.065427336   0.0000009908377482
O   8.065427336   -2.016356834   0.0000009908377482
O   -2.016356834   8.065427336   0.0000009908377482
O   2.016356834   -8.065427336   0.0000009908377482
O   -8.065427336   2.016356834   0.0000009908377482
O   -2.016356834   -8.065427336   0.0000009908377482
O   -8.065427336   -2.016356834   0.0000009908377482
Ti   -5.911479689   -5.916480485   -7.982547106
O   8.144232252   -1.969407879   -4.067282587
O   -2.003191649   8.13948695   -4.064632734
O   2.036534869   8.137151455   -4.062488255
O   -2.00633602   -8.148790786   -8.108438387
O   8.140691057   2.059287484   -4.068262235
O   2.045818801   8.147239802   -8.120568633
Ti   5.955899889   5.951297536   -4.049291097
Ti   5.973113858   5.939072092   -7.98006946
O   8.19645996   -1.998493583   -8.108815492
O   8.204937096   2.032444743   -8.100615244
Ti   -5.931437603   -6.125422741   -4.049877665
O   6.051390996   -6.022909707   -6.083665768
O   -6.048377544   -6.028853974   -6.080371046
O   -6.007183809   6.071198686   -6.075497717
O   6.049070502   6.049070502   -2.018618491
Ti   6.049070502   6.049070502   0
O   6.049070502   -6.049070502   -2.018618491
Ti   6.049070502   -6.049070502   0
O   -6.049070502   6.049070502   -2.018618491
Ti   -6.049070502   6.049070502   0
O   -6.049070502   -6.049070502   -2.018618491
Ti   -6.049070502   -6.049070502   0
Ti   -6.138873444   5.965075965   -4.045866209
O   6.098542952   6.074255928   -6.07939803
Ti   -6.121223307   6.172564586   -7.979859936
Ti   6.161742025   -6.135590928   -4.05521741
Ti   6.192830202   -6.157671327   -7.977215291
Ba   -4.01763914   -8.034607771   -6.14975927
Ba   -8.044942267   -4.027844249   -6.166270038
Ba   4.067030896   8.036206244   -6.15785672
Ba   8.052323895   4.039419181   -6.154887206
Ba   8.065427336   4.032713668   -2.03146445
Ba   4.032713668   8.065427336   -2.03146445
Ba   8.065427336   -4.032713668   -2.03146445
Ba   -4.032713668   8.065427336   -2.03146445
Ba   4.032713668   -8.065427336   -2.03146445
Ba   -8.065427336   4.032713668   -2.03146445
Ba   -4.032713668   -8.065427336   -2.03146445
Ba   -8.065427336   -4.032713668   -2.03146445
Ba   -8.078530777   4.039419181   -6.154887206
Ba   8.085912406   -4.027844249   -6.166270038
Ba   -4.01763914   8.096246902   -6.14975927
Ba   4.067030896   -8.094648428   -6.15785672
O   -7.939043993   6.047661417   -8.098811103
O   -6.011299266   7.985742788   -8.102316903
O   -6.035468538   -7.988174315   -4.062873742
O   -10.01423202   0.1192645536   -8.107502282
O   8.018019016   -6.003907042   -4.064181698
O   6.083414005   -7.972683254   -8.099496731
O   6.071579598   -7.991866821   -4.066661086
O   0.0647779547   -10.03725672   -4.065718424
O   8.015834191   -6.041979381   -8.096844546
O   -10.0478383   0.07156279825   -4.07036836
O   -7.992946827   6.089811096   -4.062453576
O   -0.07537730501   10.06441227   -8.102098247
O   0.0935817875   -10.06836234   -8.096741269
O   8.065427336   6.049070502   0.0000009908377482
O   6.049070502   8.065427336   0.0000009908377482
O   10.08178417   0   0.0000009908377482
O   0   10.08178417   0.0000009908377482
O   8.065427336   -6.049070502   0.0000009908377482
O   -6.049070502   8.065427336   0.0000009908377482
O   6.049070502   -8.065427336   0.0000009908377482
O   -8.065427336   6.049070502   0.0000009908377482
O   0   -10.08178417   0.0000009908377482
O   -10.08178417   0   0.0000009908377482
O   -6.049070502   -8.065427336   0.0000009908377482
O   -8.065427336   -6.049070502   0.0000009908377482
O   -8.112835656   -6.003907042   -4.064181698
O   -8.115020481   -6.041979381   -8.096844546
O   -0.04737555799   10.12018458   -4.071598428
O   10.1212689   0.07984578363   -4.064112561
O   -6.011299266   -8.145111884   -8.102316903
O   -6.035468538   8.142680358   -4.062873742
O   6.071579598   8.138987851   -4.066661086
O   8.137907845   6.089811096   -4.062453576
O   10.16501203   -0.06263566953   -8.102214412
Ti   9.990159492   1.930630469   -4.050525034
O   6.083414005   8.158171418   -8.099496731
Ti   -1.888161604   10.00193099   -4.064058951
O   8.19181068   6.047661417   -8.098811103
Ti   -2.113515663   -9.962609393   -7.979217525
Ti   10.01593877   -1.876260809   -7.981058257
Ti   2.164880587   9.981239296   -7.99421909
Ti   9.998342509   -2.100569092   -4.050648752
O   -10.03852682   -1.990727336   -6.084328722
Ti   10.01159816   2.147499209   -7.980184428
Ti   2.141583096   10.01399524   -4.058978448
O   2.049243647   -10.04453542   -6.08516576
O   -1.988417798   -10.06075234   -6.080809805
O   -10.0505634   2.053266642   -6.080204184
O   10.08178417   2.016356834   -2.018618491
Ti   10.08178417   2.016356834   0
O   2.016356834   10.08178417   -2.018618491
Ti   2.016356834   10.08178417   0
O   10.08178417   -2.016356834   -2.018618491
Ti   10.08178417   -2.016356834   0
O   -2.016356834   10.08178417   -2.018618491
Ti   -2.016356834   10.08178417   0
O   2.016356834   -10.08178417   -2.018618491
Ti   2.016356834   -10.08178417   0
O   -10.08178417   2.016356834   -2.018618491
Ti   -10.08178417   2.016356834   0
O   -2.016356834   -10.08178417   -2.018618491
Ti   -2.016356834   -10.08178417   0
O   -10.08178417   -2.016356834   -2.018618491
Ti   -10.08178417   -2.016356834   0
O   2.022094569   10.08688343   -6.092971495
O   -2.023822484   10.09708797   -6.080934711
O   10.12671147   -1.990080136   -6.083047442
O   10.12722611   2.04339252   -6.077098387
Ti   1.916341952   -10.15902649   -4.052082769
Ti   1.908442576   -10.16417698   -7.98547116
Ti   -10.18383984   1.925841413   -7.982191752
Ti   -10.1890502   1.914972247   -4.063275181
Ti   -10.14792761   -2.135193887   -7.988158936
Ti   -1.887326943   10.19809496   -7.98950548
Ti   -2.109444572   -10.16070854   -4.048978753
Ti   -10.18536844   -2.114664406   -4.059740526
O   -10.03512303   -3.953123681   -8.104738457
O   -3.966114296   -10.03658821   -4.060792405
O   -10.00904977   4.121853246   -8.104754532
O   -10.07295081   -3.964307893   -4.069459817
O   10.09303694   -3.958984687   -4.065313358
O   -4.098499086   10.04186988   -8.10308558
O   4.1082034   -10.0430937   -4.067381503
O   -10.04457801   4.104607443   -4.063701636
O   10.08178417   4.032713668   0.0000009908377482
O   4.032713668   10.08178417   0.0000009908377482
O   10.08178417   -4.032713668   0.0000009908377482
O   -4.032713668   10.08178417   0.0000009908377482
O   -3.929657811   -10.12225038   -8.100385018
O   4.032713668   -10.08178417   0.0000009908377482
O   -10.08178417   4.032713668   0.0000009908377482
O   -4.032713668   -10.08178417   0.0000009908377482
O   -10.08178417   -4.032713668   0.0000009908377482
O   4.170951864   -10.03575707   -8.102097531
O   3.98256525   10.11908646   -8.103990238
O   3.995503881   10.12264325   -4.068623746
O   10.16860749   3.963347545   -8.104344877
O   10.11180798   -4.106531882   -8.104256841
O   -4.08437037   10.12725535   -4.062346657
O   10.1208793   4.111646352   -4.060637744
Ba   -8.032786236   8.063864639   -6.143138764
Ba   -8.032786236   -8.066990034   -6.143138764
Ba   8.065427336   8.065427336   -2.03146445
Ba   8.065427336   -8.065427336   -2.03146445
Ba   -8.065427336   8.065427336   -2.03146445
Ba   -8.065427336   -8.065427336   -2.03146445
Ba   8.098068437   8.063864639   -6.143138764
Ba   8.098068437   -8.066990034   -6.143138764
Ti   -5.931437603   10.00543193   -4.049877665
Ti   9.991981228   5.965075965   -4.045866209
Ti   -6.121223307   -9.958290086   -7.979859936
Ti   -9.938024471   -6.157671327   -7.977215291
Ti   -9.969112648   -6.135590928   -4.05521741
O   -6.007183809   -10.05965599   -6.075497717
O   -10.03231172   6.074255928   -6.07939803
Ti   6.192830202   9.973183346   -7.977215291
Ti   6.161742025   9.995263744   -4.05521741
O   -10.07946368   -6.022909707   -6.083665768
O   10.08247713   -6.028853974   -6.080371046
O   10.08178417   6.049070502   -2.018618491
Ti   10.08178417   6.049070502   0
O   6.049070502   10.08178417   -2.018618491
Ti   6.049070502   10.08178417   0
O   10.08178417   -6.049070502   -2.018618491
Ti   10.08178417   -6.049070502   0
O   -6.049070502   10.08178417   -2.018618491
Ti   -6.049070502   10.08178417   0
O   6.049070502   -10.08178417   -2.018618491
Ti   6.049070502   -10.08178417   0
O   -10.08178417   6.049070502   -2.018618491
Ti   -10.08178417   6.049070502   0
O   -6.049070502   -10.08178417   -2.018618491
Ti   -6.049070502   -10.08178417   0
O   -10.08178417   -6.049070502   -2.018618491
Ti   -10.08178417   -6.049070502   0
Ti   10.00963136   6.172564586   -7.979859936
O   6.098542952   -10.05659874   -6.07939803
Ti   -10.15774081   5.939072092   -7.98006946
O   -6.048377544   10.1020007   -6.080371046
O   6.051390996   10.10794497   -6.083665768
Ti   -10.17495478   5.951297536   -4.049291097
Ti   5.955899889   -10.17955714   -4.049291097
Ti   -5.911479689   10.21437419   -7.982547106
O   10.12367086   6.071198686   -6.075497717
Ti   10.21937498   -5.916480485   -7.982547106
Ti   5.973113858   -10.19178258   -7.98006946
Ti   -6.138873444   -10.16577871   -4.045866209
Ti   10.19941707   -6.125422741   -4.049877665
Ba   12.09222264   0.02362253211   -6.146941068
Ba   12.098141   0   -2.03146445
Ba   0   12.098141   -2.03146445
Ba   0   -12.098141   -2.03146445
Ba   -12.098141   0   -2.03146445
O   -11.94196347   -1.986050303   -8.130325283
Ba   -0.01822558568   -12.10746482   -6.152260754
Ba   0.04888319646   12.12462785   -6.208134893
O   2.079887164   -11.97403202   -8.112912524
Ba   -12.1552491   -0.06864158556   -6.204508387
O   -11.98847583   2.073443211   -8.106129452
O   -2.015768098   12.0047169   -8.112944758
O   -1.977918403   -12.01282294   -4.064796004
O   2.051698524   -12.01221529   -4.065902447
O   -12.02466166   -1.982028458   -4.05992681
O   -12.0324635   2.053455586   -4.069093381
O   12.098141   2.016356834   0.0000009908377482
O   2.016356834   12.098141   0.0000009908377482
O   12.098141   -2.016356834   0.0000009908377482
O   -2.016356834   12.098141   0.0000009908377482
O   2.016356834   -12.098141   0.0000009908377482
O   -12.098141   2.016356834   0.0000009908377482
O   -2.016356834   -12.098141   0.0000009908377482
O   -12.098141   -2.016356834   0.0000009908377482
O   2.018393328   12.1213114   -8.116416021
O   2.011459217   12.12688932   -4.063074279
O   -1.957285314   -12.16835633   -8.103681311
O   12.16973764   -1.969691861   -4.065092522
O   -2.013350471   12.16275753   -4.067166826
O   12.17388511   2.063074618   -4.063889126
O   12.19928979   -2.050959898   -8.11949949
O   12.2262455   1.985167324   -8.103764759
Ba   -4.046194687   -12.07438589   -6.144272567
Ba   4.000048678   12.10217112   -6.199004646
Ba   12.08465999   4.056468784   -6.144272567
Ba   12.098141   4.032713668   -2.03146445
Ba   4.032713668   12.098141   -2.03146445
Ba   12.098141   -4.032713668   -2.03146445
Ba   -4.032713668   12.098141   -2.03146445
Ba   4.032713668   -12.098141   -2.03146445
Ba   -12.098141   4.032713668   -2.03146445
Ba   -4.032713668   -12.098141   -2.03146445
Ba   -12.098141   -4.032713668   -2.03146445
Ba   3.999558078   -12.12139908   -6.160210869
Ba   12.13127775   -3.999393854   -6.156063585
Ba   -3.999576922   12.13146082   -6.156063585
Ba   -12.13129659   4.009455597   -6.160210869
Ba   -12.13080599   -4.028683548   -6.199004646
O   -10.04744067   -7.972683254   -8.099496731
O   -7.939043993   -10.08319326   -8.098811103
O   -7.992946827   -10.04104358   -4.062453576
O   -10.05927507   -7.991866821   -4.066661086
O   10.09538613   -7.988174315   -4.062873742
O   8.015834191   10.08887529   -8.096844546
O   10.11955541   7.985742788   -8.102316903
O   10.08178417   8.065427336   0.0000009908377482
O   8.065427336   10.08178417   0.0000009908377482
O   10.08178417   -8.065427336   0.0000009908377482
O   8.065427336   -10.08178417   0.0000009908377482
O   -8.065427336   10.08178417   0.0000009908377482
O   -10.08178417   8.065427336   0.0000009908377482
O   -8.065427336   -10.08178417   0.0000009908377482
O   -10.08178417   -8.065427336   0.0000009908377482
O   8.018019016   10.12694763   -4.064181698
O   8.137907845   -10.04104358   -4.062453576
O   -10.05927507   8.138987851   -4.066661086
O   -10.04744067   8.158171418   -8.099496731
O   -8.115020481   10.08887529   -8.096844546
O   10.09538613   8.142680358   -4.062873742
O   -8.112835656   10.12694763   -4.064181698
O   10.11955541   -8.145111884   -8.102316903
O   8.19181068   -10.08319326   -8.098811103
H   -13.12319225   -2.144199459   -10.56957688
O   -11.95990281   6.095097601   -8.102097531
O   -6.009975368   -12.01920832   -4.060637744
O   -6.01904669   12.02432279   -8.104256841
O   12.0464843   -6.003599327   -4.062346657
O   -12.02265127   6.08776097   -4.067381503
O   6.086276658   -12.02624723   -4.063701636
O   6.121804903   -12.00900143   -8.104754532
O   12.03235559   -6.088984789   -8.10308558
O   12.098141   6.049070502   0.0000009908377482
O   6.049070502   12.098141   0.0000009908377482
O   12.098141   -6.049070502   0.0000009908377482
O   -6.049070502   12.098141   0.0000009908377482
O   6.049070502   -12.098141   0.0000009908377482
O   -12.098141   6.049070502   0.0000009908377482
O   -6.049070502   -12.098141   0.0000009908377482
O   -12.098141   -6.049070502   0.0000009908377482
O   -12.13535079   -6.008211426   -4.068623746
O   -5.962247186   -12.16750713   -8.104344877
O   -12.14828942   -6.011768208   -8.103990238
O   -6.037817732   12.17186999   -4.065313358
O   6.05790386   12.16654678   -4.069459817
O   12.20119686   6.00860429   -8.100385018
O   12.16474038   6.094266459   -4.060792405
O   6.095731644   12.17773099   -8.104738457
Ti   1.853458384   13.93951279   -8.462796844
O   0.06301093652   -14.07186943   -4.06607163
O   -14.07592765   0.1294905121   -8.093931329
Ti   -9.938024471   9.973183346   -7.977215291
O   0.04857117452   14.08519451   -8.177904183
O   -14.08799227   0.08056086805   -4.060148399
O   0.09438933882   -14.08987995   -8.105444148
O   14.11449784   0   0.0000009908377482
O   0   14.11449784   0.0000009908377482
O   0   -14.11449784   0.0000009908377482
O   -14.11449784   0   0.0000009908377482
Ti   -9.969112648   9.995263744   -4.05521741
Ti   10.00963136   -9.958290086   -7.979859936
Ti   -2.093787197   -13.98597989   -7.979670507
Ti   1.914859562   14.01520085   -4.149525026
O   14.1502596   0.07931090788   -4.069911272
Ti   14.02497301   -1.890606016   -8.006571409
O   0.01850310575   14.15227823   -4.061001626
Ti   14.03229626   1.920908966   -4.052448578
Ti   -2.077931951   14.01597991   -4.051740566
O   14.16901899   -0.07903626032   -8.10874312
O   -14.04070218   -2.013837015   -10.26623392
Ti   14.03706748   2.144874787   -7.979670507
O   -10.03231172   -10.05659874   -6.07939803
Ti   14.05292272   -2.114874757   -4.051740566
O   2.039938299   -14.0748172   -6.083065219
O   -14.09296559   -1.996440241   -5.984731912
O   -1.977273032   -14.09688141   -6.082244824
O   -14.09091637   2.056037469   -6.083065219
Ti   9.991981228   -10.16577871   -4.045866209
O   10.08178417   10.08178417   -2.018618491
Ti   10.08178417   10.08178417   0
O   14.11449784   2.016356834   -2.018618491
Ti   14.11449784   2.016356834   0
O   2.016356834   14.11449784   -2.018618491
Ti   2.016356834   14.11449784   0
O   14.11449784   -2.016356834   -2.018618491
Ti   14.11449784   -2.016356834   0
O   -2.016356834   14.11449784   -2.018618491
Ti   -2.016356834   14.11449784   0
O   10.08178417   -10.08178417   -2.018618491
Ti   10.08178417   -10.08178417   0
O   -10.08178417   10.08178417   -2.018618491
Ti   -10.08178417   10.08178417   0
O   2.016356834   -14.11449784   -2.018618491
Ti   2.016356834   -14.11449784   0
O   -14.11449784   2.016356834   -2.018618491
Ti   -14.11449784   2.016356834   0
O   -2.016356834   -14.11449784   -2.018618491
Ti   -2.016356834   -14.11449784   0
O   -14.11449784   -2.016356834   -2.018618491
Ti   -14.11449784   -2.016356834   0
O   -10.08178417   -10.08178417   -2.018618491
Ti   -10.08178417   -10.08178417   0
O   -1.989687623   14.12163706   -6.101463567
O   2.090152489   14.11701766   -10.26623392
O   10.12367086   -10.05965599   -6.075497717
O   10.08247713   10.1020007   -6.080371046
O   -10.07946368   10.10794497   -6.083665768
O   2.037889078   14.13441443   -5.984731912
O   14.14116705   -2.009217613   -6.101463567
Ti   10.19941707   10.00543193   -4.049877665
O   14.15358164   2.03397326   -6.082244824
H   3.007662419   13.98665521   -10.56957688
Ti   1.911461532   -14.21490509   -7.999417202
Ti   -14.21449385   1.915110611   -4.066504611
Ti   1.916360821   -14.21574406   -4.066504611
Ti   -14.21939314   1.915949584   -7.999417202
Ti   -2.098558414   -14.20994571   -4.052448578
Ti   -14.21599511   -2.115653825   -4.149525026
Ti   -10.15774081   -10.19178258   -7.98006946
Ti   -10.17495478   -10.17955714   -4.049291097
Ti   -2.105881667   14.24024866   -8.006571409
Ti   -14.27739629   -2.191341887   -8.462796844
Ti   10.21937498   10.21437419   -7.982547106
Ba   -12.06382378   8.036206244   -6.15785672
Ba   8.052323895   -12.09143549   -6.154887206
Ba   -12.06382378   -8.094648428   -6.15785672
Ba   -8.044942267   12.10301042   -6.166270038
Ba   12.11321553   -8.034607771   -6.14975927
Ba   12.098141   8.065427336   -2.03146445
Ba   8.065427336   12.098141   -2.03146445
Ba   12.098141   -8.065427336   -2.03146445
Ba   -8.065427336   12.098141   -2.03146445
Ba   8.065427336   -12.098141   -2.03146445
Ba   -12.098141   8.065427336   -2.03146445
Ba   -8.065427336   -12.098141   -2.03146445
Ba   -12.098141   -8.065427336   -2.03146445
Ba   -8.078530777   -12.09143549   -6.154887206
Ba   8.085912406   12.10301042   -6.166270038
Ba   12.11321553   8.096246902   -6.14975927
O   -3.956969562   -14.06778005   -4.063889126
O   -3.931564879   14.07989477   -8.11949949
O   -14.05096751   4.156822655   -8.112912524
O   4.142378844   -14.05741146   -8.106129452
O   4.098391172   -14.07739909   -4.069093381
O   14.1175042   -3.968097145   -4.067166826
O   -14.07915615   4.118639378   -4.065902447
O   -14.11246134   -4.009543273   -8.116416021
O   -3.904609172   -14.14568735   -8.103764759
O   -14.11939545   -4.003965351   -4.063074279
O   14.11449784   4.032713668   0.0000009908377482
O   4.032713668   14.11449784   0.0000009908377482
O   14.11449784   -4.032713668   0.0000009908377482
O   -4.032713668   14.11449784   0.0000009908377482
O   4.032713668   -14.11449784   0.0000009908377482
O   -14.11449784   4.032713668   0.0000009908377482
O   -4.032713668   -14.11449784   0.0000009908377482
O   -14.11449784   -4.032713668   0.0000009908377482
O   -3.961117034   14.16116281   -4.065092522
O   14.11508657   -4.126137773   -8.112944758
O   14.17356936   3.96249834   -8.103681311
O   4.106193011   14.14882621   -4.05992681
O   14.15293627   4.118031736   -4.064796004
O   4.188891203   14.14480437   -8.130325283
Ti   5.982927067   13.99566079   -7.988158936
Ti   5.945486232   14.01619027   -4.059740526
Ti   14.0214101   5.970146129   -4.048978753
Ti   -13.96597409   -6.149615376   -7.99421909
Ti   -6.119256513   -13.98335546   -7.980184428
Ti   -13.98927158   -6.11685943   -4.058978448
Ti   -6.132512163   14.03028558   -4.050648752
O   -6.003628558   -14.08746215   -6.077098387
Ti   14.01733901   6.168245279   -7.979217525
O   6.080291274   -14.07758803   -6.080204184
O   -14.08161103   6.086319249   -6.08516576
O   14.10703219   -6.033766701   -6.080934711
O   -14.1087601   -6.043971241   -6.092971495
O   14.11449784   6.049070502   -2.018618491
Ti   14.11449784   6.049070502   0
O   6.049070502   14.11449784   -2.018618491
Ti   6.049070502   14.11449784   0
O   14.11449784   -6.049070502   -2.018618491
Ti   14.11449784   -6.049070502   0
O   -6.049070502   14.11449784   -2.018618491
Ti   -6.049070502   14.11449784   0
O   6.049070502   -14.11449784   -2.018618491
Ti   6.049070502   -14.11449784   0
O   -14.11449784   6.049070502   -2.018618491
Ti   -14.11449784   6.049070502   0
O   -6.049070502   -14.11449784   -2.018618491
Ti   -6.049070502   -14.11449784   0
O   -14.11449784   -6.049070502   -2.018618491
Ti   -14.11449784   -6.049070502   0
O   -6.004143204   14.14077454   -6.083047442
O   14.14243687   6.070102329   -6.080809805
O   6.092327848   14.14012734   -6.084328722
Ti   5.94701483   -14.20501326   -7.982191752
Ti   5.941804473   -14.21588243   -4.063275181
Ti   -14.21451272   5.971828178   -4.052082769
Ti   -14.2224121   5.966677692   -7.98547116
Ti   14.24352773   -5.932759711   -7.98950548
Ti   -6.14069518   -14.2002242   -4.050525034
Ti   14.24269307   -6.128923684   -4.064058951
Ti   -6.114915903   14.25459386   -7.981058257
O   -11.95990281   -10.03575707   -8.102097531
O   -10.00904977   -12.00900143   -8.104754532
O   -12.02265127   -10.0430937   -4.067381503
O   -10.04457801   -12.02624723   -4.063701636
O   12.03235559   10.04186988   -8.10308558
O   10.11180798   12.02432279   -8.104256841
O   10.1208793   -12.01920832   -4.060637744
O   12.0464843   10.12725535   -4.062346657
O   12.098141   10.08178417   0.0000009908377482
O   10.08178417   12.098141   0.0000009908377482
O   12.098141   -10.08178417   0.0000009908377482
O   10.08178417   -12.098141   0.0000009908377482
O   -10.08178417   12.098141   0.0000009908377482
O   -12.098141   10.08178417   0.0000009908377482
O   -10.08178417   -12.098141   0.0000009908377482
O   -12.098141   -10.08178417   0.0000009908377482
O   12.16474038   -10.03658821   -4.060792405
O   -10.03512303   12.17773099   -8.104738457
O   -10.07295081   12.16654678   -4.069459817
O   -12.13535079   10.12264325   -4.068623746
O   -12.14828942   10.11908646   -8.103990238
O   10.09303694   12.17186999   -4.065313358
O   12.20119686   -10.12225038   -8.100385018
O   10.16860749   -12.16750713   -8.104344877
Ba   0.007081126214   16.07542112   -6.197898525
Ba   -16.12377355   -0.05543354981   -6.197898525
Ba   16.13085467   0   -2.03146445
Ba   0   16.13085467   -2.03146445
O   2.05492702   -16.00136416   -8.093931329
O   -16.03646533   2.040974723   -8.105444148
O   -1.96183568   16.05181841   -8.10874312
O   -1.980595068   -16.05154376   -4.069911272
O   -7.925917576   -14.09840993   -8.100615244
O   2.042862406   -16.0502938   -4.060148399
O   -7.990163615   -14.07156719   -4.068262235
O   -14.08503587   -7.98361487   -8.120568633
O   -16.06784374   2.058985246   -4.06607163
O   -14.0943198   -7.993703217   -4.062488255
O   -7.934394712   14.13236109   -8.108815492
O   -16.0822835   -2.045660158   -8.177904183
O   14.12451865   7.982063887   -8.108438387
O   14.12766302   -7.991367722   -4.064632734
O   -16.11235157   -1.978576441   -4.061001626
O   14.11449784   8.065427336   0.0000009908377482
O   8.065427336   14.11449784   0.0000009908377482
O   16.13085467   2.016356834   0.0000009908377482
O   16.13085467   -2.016356834   0.0000009908377482
O   2.016356834   16.13085467   0.0000009908377482
O   -2.016356834   16.13085467   0.0000009908377482
O   14.11449784   -8.065427336   0.0000009908377482
O   -8.065427336   14.11449784   0.0000009908377482
O   8.065427336   -14.11449784   0.0000009908377482
O   -14.11449784   8.065427336   0.0000009908377482
O   -8.065427336   -14.11449784   0.0000009908377482
O   -14.11449784   -8.065427336   0.0000009908377482
O   8.140691057   -14.07156719   -4.068262235
O   -7.98662242   14.16144679   -4.067282587
O   -14.08503587   8.147239802   -8.120568633
O   -14.0943198   8.137151455   -4.062488255
O   14.12766302   8.13948695   -4.064632734
O   14.12451865   -8.148790786   -8.108438387
O   8.204937096   -14.09840993   -8.100615244
O   8.144232252   14.16144679   -4.067282587
O   8.19645996   14.13236109   -8.108815492
Ba   3.97560557   16.06221309   -6.204508387
Ba   -16.08197148   -4.00622682   -6.208134893
Ba   -4.038632037   -16.10723214   -6.146941068
Ba   16.11262909   4.023389847   -6.152260754
Ba   16.13085467   4.032713668   -2.03146445
Ba   4.032713668   16.13085467   -2.03146445
Ba   16.13085467   -4.032713668   -2.03146445
Ba   -4.032713668   16.13085467   -2.03146445
Ba   12.08465999   -12.07438589   -6.144272567
Ba   12.098141   12.098141   -2.03146445
Ba   12.098141   -12.098141   -2.03146445
Ba   -12.098141   12.098141   -2.03146445
Ba   -12.098141   -12.098141   -2.03146445
Ba   -12.13080599   12.10217112   -6.199004646
O   -6.009585773   -16.05100889   -4.064112561
O   -5.96584264   16.068219   -8.102214412
O   6.116622655   -16.01159012   -8.107502282
O   -16.03727288   6.062492334   -8.096741269
Ba   -12.13129659   -12.12139908   -6.160210869
Ba   12.13127775   12.13146082   -6.156063585
O   16.05547737   -6.066442406   -8.102098247
Ti   -13.96597409   9.981239296   -7.99421909
O   16.08347911   -6.01067009   -4.071598428
O   6.08301637   -16.05929187   -4.07036836
O   -16.06607672   6.093597951   -4.065718424
Ti   14.01733901   -9.962609393   -7.979217525
Ti   10.01159816   -13.98335546   -7.980184428
Ti   -13.98927158   10.01399524   -4.058978448
O   16.13085467   6.049070502   0.0000009908377482
O   6.049070502   16.13085467   0.0000009908377482
O   16.13085467   -6.049070502   0.0000009908377482
O   -6.049070502   16.13085467   0.0000009908377482
Ti   9.998342509   14.03028558   -4.050648752
Ti   -10.14792761   13.99566079   -7.988158936
O   -14.08161103   -10.04453542   -6.08516576
O   -10.0505634   -14.07758803   -6.080204184
Ti   14.0214101   -10.16070854   -4.048978753
Ti   -10.18536844   14.01619027   -4.059740526
O   -10.03852682   14.14012734   -6.084328722
O   -14.1087601   10.08688343   -6.092971495
O   14.11449784   10.08178417   -2.018618491
Ti   14.11449784   10.08178417   0
O   10.08178417   14.11449784   -2.018618491
Ti   10.08178417   14.11449784   0
O   14.11449784   -10.08178417   -2.018618491
Ti   14.11449784   -10.08178417   0
O   -10.08178417   14.11449784   -2.018618491
Ti   -10.08178417   14.11449784   0
O   10.08178417   -14.11449784   -2.018618491
Ti   10.08178417   -14.11449784   0
O   -14.11449784   10.08178417   -2.018618491
Ti   -14.11449784   10.08178417   0
O   -10.08178417   -14.11449784   -2.018618491
Ti   -10.08178417   -14.11449784   0
O   -14.11449784   -10.08178417   -2.018618491
Ti   -14.11449784   -10.08178417   0
O   14.10703219   10.09708797   -6.080934711
O   10.12722611   -14.08746215   -6.077098387
O   14.14243687   -10.06075234   -6.080809805
Ti   9.990159492   -14.2002242   -4.050525034
O   10.12671147   14.14077454   -6.083047442
Ti   14.24269307   10.00193099   -4.064058951
Ti   10.01593877   14.25459386   -7.981058257
Ti   -14.21451272   -10.15902649   -4.052082769
Ti   -10.18383984   -14.20501326   -7.982191752
Ti   -14.2224121   -10.16417698   -7.98547116
Ti   -10.1890502   -14.21588243   -4.063275181
Ti   14.24352773   10.19809496   -7.98950548
Ba   -16.10565041   -8.058714416   -6.168388502
Ba   8.044178113   -16.11719458   -6.162551686
Ba   -16.10565041   8.072140257   -6.168388502
Ba   -8.086676559   -16.11719458   -6.162551686
Ba   16.13085467   8.065427336   -2.03146445
Ba   8.065427336   16.13085467   -2.03146445
Ba   16.13085467   -8.065427336   -2.03146445
Ba   -8.065427336   16.13085467   -2.03146445
O   -14.05096751   -11.97403202   -8.112912524
O   -11.98847583   -14.05741146   -8.106129452
O   -14.07915615   -12.01221529   -4.065902447
O   -11.94196347   14.14480437   -8.130325283
O   -12.0324635   -14.07739909   -4.069093381
O   14.11508657   12.0047169   -8.112944758
O   14.15293627   -12.01282294   -4.064796004
O   -12.02466166   14.14882621   -4.05992681
O   14.11449784   12.098141   0.0000009908377482
O   12.098141   14.11449784   0.0000009908377482
O   14.11449784   -12.098141   0.0000009908377482
O   12.098141   -14.11449784   0.0000009908377482
O   -12.098141   14.11449784   0.0000009908377482
O   -14.11449784   12.098141   0.0000009908377482
O   -12.098141   -14.11449784   0.0000009908377482
O   -14.11449784   -12.098141   0.0000009908377482
O   -14.11246134   12.1213114   -8.116416021
O   12.17388511   -14.06778005   -4.063889126
O   -14.11939545   12.12688932   -4.063074279
O   12.19928979   14.07989477   -8.11949949
O   14.1175042   12.16275753   -4.067166826
O   12.16973764   14.16116281   -4.065092522
O   14.17356936   -12.16835633   -8.103681311
O   12.2262455   -14.14568735   -8.103764759
O   -10.01423202   -16.01159012   -8.107502282
O   -16.03727288   -10.06836234   -8.096741269
O   -10.0478383   -16.05929187   -4.07036836
O   -16.06607672   -10.03725672   -4.065718424
O   16.05547737   10.06441227   -8.102098247
O   10.1212689   -16.05100889   -4.064112561
O   16.08347911   10.12018458   -4.071598428
O   10.16501203   16.068219   -8.102214412
O   16.13085467   10.08178417   0.0000009908377482
O   10.08178417   16.13085467   0.0000009908377482
O   16.13085467   -10.08178417   0.0000009908377482
O   -10.08178417   16.13085467   0.0000009908377482
H   -13.12319225   13.98665521   -10.56957688
Ti   14.03706748   -13.98597989   -7.979670507
Ti   14.05292272   14.01597991   -4.051740566
O   -14.04070218   14.11701766   -10.26623392
O   -14.09091637   -14.0748172   -6.083065219
Ti   -14.27739629   13.93951279   -8.462796844
O   -14.09296559   14.13441443   -5.984731912
O   14.11449784   14.11449784   -2.018618491
Ti   14.11449784   14.11449784   0
O   14.11449784   -14.11449784   -2.018618491
Ti   14.11449784   -14.11449784   0
O   -14.11449784   14.11449784   -2.018618491
Ti   -14.11449784   14.11449784   0
O   -14.11449784   -14.11449784   -2.018618491
Ti   -14.11449784   -14.11449784   0
Ti   -14.21599511   14.01520085   -4.149525026
Ti   14.03229626   -14.20994571   -4.052448578
O   14.15358164   -14.09688141   -6.082244824
O   14.14116705   14.12163706   -6.101463567
Ti   14.02497301   14.24024866   -8.006571409
Ti   -14.21449385   -14.21574406   -4.066504611
Ti   -14.21939314   -14.21490509   -7.999417202
Ba   -16.08197148   12.12462785   -6.208134893
Ba   12.09222264   -16.10723214   -6.146941068
Ba   -12.1552491   16.06221309   -6.204508387
Ba   16.11262909   -12.10746482   -6.152260754
Ba   16.13085467   12.098141   -2.03146445
Ba   12.098141   16.13085467   -2.03146445
Ba   16.13085467   -12.098141   -2.03146445
Ba   -12.098141   16.13085467   -2.03146445
O   -14.07592765   -16.00136416   -8.093931329
O   -16.03646533   -14.08987995   -8.105444148
O   -14.08799227   -16.0502938   -4.060148399
O   -16.06784374   -14.07186943   -4.06607163
O   -16.0822835   14.08519451   -8.177904183
O   14.1502596   -16.05154376   -4.069911272
O   14.16901899   16.05181841   -8.10874312
O   16.13085467   14.11449784   0.0000009908377482
O   14.11449784   16.13085467   0.0000009908377482
O   16.13085467   -14.11449784   0.0000009908377482
O   -14.11449784   16.13085467   0.0000009908377482
O   -16.11235157   14.15227823   -4.061001626
Ba   -16.12377355   16.07542112   -6.197898525
Ba   16.13085467   16.13085467   -2.03146445
