292
SmallSlab RIGID TightConv
O   -14.0943198   -7.993703217   -4.062488255
O   2.036534869   -7.993703217   -4.062488255
O   -10.05927507   -7.991866821   -4.066661086
O   6.071579598   -7.991866821   -4.066661086
O   -2.003191649   -7.991367722   -4.064632734
O   14.12766302   -7.991367722   -4.064632734
O   -6.035468538   -7.988174315   -4.062873742
O   10.09538613   -7.988174315   -4.062873742
O   -14.08503587   -7.98361487   -8.120568633
O   2.045818801   -7.98361487   -8.120568633
O   -10.04744067   -7.972683254   -8.099496731
O   6.083414005   -7.972683254   -8.099496731
Ti   -9.938024471   -6.157671327   -7.977215291
Ti   6.192830202   -6.157671327   -7.977215291
Ti   -13.96597409   -6.149615376   -7.99421909
Ti   2.164880587   -6.149615376   -7.99421909
Ti   -9.969112648   -6.135590928   -4.05521741
Ti   6.161742025   -6.135590928   -4.05521741
Ti   -1.888161604   -6.128923684   -4.064058951
Ti   14.24269307   -6.128923684   -4.064058951
Ti   -5.931437603   -6.125422741   -4.049877665
Ti   10.19941707   -6.125422741   -4.049877665
Ti   -13.98927158   -6.11685943   -4.058978448
Ti   2.141583096   -6.11685943   -4.058978448
O   -4.098499086   -6.088984789   -8.10308558
O   12.03235559   -6.088984789   -8.10308558
O   -0.07537730501   -6.066442406   -8.102098247
O   16.05547737   -6.066442406   -8.102098247
O   -14.11449784   -6.049070502   -2.018618491
Ti   -14.11449784   -6.049070502   0
O   -12.098141   -6.049070502   0.0000009908377482
O   -10.08178417   -6.049070502   -2.018618491
Ti   -10.08178417   -6.049070502   0
O   -8.065427336   -6.049070502   0.0000009908377482
O   -6.049070502   -6.049070502   -2.018618491
Ti   -6.049070502   -6.049070502   0
O   -4.032713668   -6.049070502   0.0000009908377482
O   -2.016356834   -6.049070502   -2.018618491
Ti   -2.016356834   -6.049070502   0
O   0   -6.049070502   0.0000009908377482
O   2.016356834   -6.049070502   -2.018618491
Ti   2.016356834   -6.049070502   0
O   4.032713668   -6.049070502   0.0000009908377482
O   6.049070502   -6.049070502   -2.018618491
Ti   6.049070502   -6.049070502   0
O   8.065427336   -6.049070502   0.0000009908377482
O   10.08178417   -6.049070502   -2.018618491
Ti   10.08178417   -6.049070502   0
O   12.098141   -6.049070502   0.0000009908377482
O   14.11449784   -6.049070502   -2.018618491
Ti   14.11449784   -6.049070502   0
O   16.13085467   -6.049070502   0.0000009908377482
O   -14.1087601   -6.043971241   -6.092971495
O   2.022094569   -6.043971241   -6.092971495
O   -8.115020481   -6.041979381   -8.096844546
O   8.015834191   -6.041979381   -8.096844546
O   -2.023822484   -6.033766701   -6.080934711
O   14.10703219   -6.033766701   -6.080934711
O   -6.048377544   -6.028853974   -6.080371046
O   10.08247713   -6.028853974   -6.080371046
O   -10.07946368   -6.022909707   -6.083665768
O   6.051390996   -6.022909707   -6.083665768
O   -12.14828942   -6.011768208   -8.103990238
O   3.98256525   -6.011768208   -8.103990238
O   -0.04737555799   -6.01067009   -4.071598428
O   16.08347911   -6.01067009   -4.071598428
O   -12.13535079   -6.008211426   -4.068623746
O   3.995503881   -6.008211426   -4.068623746
O   -8.112835656   -6.003907042   -4.064181698
O   8.018019016   -6.003907042   -4.064181698
O   -4.08437037   -6.003599327   -4.062346657
O   12.0464843   -6.003599327   -4.062346657
Ti   -1.887326943   -5.932759711   -7.98950548
Ti   14.24352773   -5.932759711   -7.98950548
Ti   -5.911479689   -5.916480485   -7.982547106
Ti   10.21937498   -5.916480485   -7.982547106
O   -2.015768098   -4.126137773   -8.112944758
O   14.11508657   -4.126137773   -8.112944758
O   -6.01904669   -4.106531882   -8.104256841
O   10.11180798   -4.106531882   -8.104256841
O   -14.11449784   -4.032713668   0.0000009908377482
Ba   -12.098141   -4.032713668   -2.03146445
O   -10.08178417   -4.032713668   0.0000009908377482
Ba   -8.065427336   -4.032713668   -2.03146445
O   -6.049070502   -4.032713668   0.0000009908377482
Ba   -4.032713668   -4.032713668   -2.03146445
O   -2.016356834   -4.032713668   0.0000009908377482
Ba   0   -4.032713668   -2.03146445
O   2.016356834   -4.032713668   0.0000009908377482
Ba   4.032713668   -4.032713668   -2.03146445
O   6.049070502   -4.032713668   0.0000009908377482
Ba   8.065427336   -4.032713668   -2.03146445
O   10.08178417   -4.032713668   0.0000009908377482
Ba   12.098141   -4.032713668   -2.03146445
O   14.11449784   -4.032713668   0.0000009908377482
Ba   16.13085467   -4.032713668   -2.03146445
Ba   -12.13080599   -4.028683548   -6.199004646
Ba   4.000048678   -4.028683548   -6.199004646
Ba   -8.044942267   -4.027844249   -6.166270038
Ba   8.085912406   -4.027844249   -6.166270038
O   -14.11246134   -4.009543273   -8.116416021
O   2.018393328   -4.009543273   -8.116416021
Ba   -16.08197148   -4.00622682   -6.208134893
Ba   0.04888319646   -4.00622682   -6.208134893
O   -14.11939545   -4.003965351   -4.063074279
O   2.011459217   -4.003965351   -4.063074279
Ba   -3.999576922   -3.999393854   -6.156063585
Ba   12.13127775   -3.999393854   -6.156063585
O   -2.013350471   -3.968097145   -4.067166826
O   14.1175042   -3.968097145   -4.067166826
O   -10.07295081   -3.964307893   -4.069459817
O   6.05790386   -3.964307893   -4.069459817
O   -6.037817732   -3.958984687   -4.065313358
O   10.09303694   -3.958984687   -4.065313358
O   -10.03512303   -3.953123681   -8.104738457
O   6.095731644   -3.953123681   -8.104738457
Ti   -14.27739629   -2.191341887   -8.462796844
Ti   1.853458384   -2.191341887   -8.462796844
H   -13.12319225   -2.144199459   -10.56957688
H   3.007662419   -2.144199459   -10.56957688
Ti   -10.14792761   -2.135193887   -7.988158936
Ti   5.982927067   -2.135193887   -7.988158936
Ti   -14.21599511   -2.115653825   -4.149525026
Ti   1.914859562   -2.115653825   -4.149525026
Ti   -2.077931951   -2.114874757   -4.051740566
Ti   14.05292272   -2.114874757   -4.051740566
Ti   -10.18536844   -2.114664406   -4.059740526
Ti   5.945486232   -2.114664406   -4.059740526
Ti   -6.132512163   -2.100569092   -4.050648752
Ti   9.998342509   -2.100569092   -4.050648752
O   -3.931564879   -2.050959898   -8.11949949
O   12.19928979   -2.050959898   -8.11949949
O   -16.0822835   -2.045660158   -8.177904183
O   0.04857117452   -2.045660158   -8.177904183
O   -14.11449784   -2.016356834   -2.018618491
Ti   -14.11449784   -2.016356834   0
O   -12.098141   -2.016356834   0.0000009908377482
O   -10.08178417   -2.016356834   -2.018618491
Ti   -10.08178417   -2.016356834   0
O   -8.065427336   -2.016356834   0.0000009908377482
O   -6.049070502   -2.016356834   -2.018618491
Ti   -6.049070502   -2.016356834   0
O   -4.032713668   -2.016356834   0.0000009908377482
O   -2.016356834   -2.016356834   -2.018618491
Ti   -2.016356834   -2.016356834   0
O   0   -2.016356834   0.0000009908377482
O   2.016356834   -2.016356834   -2.018618491
Ti   2.016356834   -2.016356834   0
O   4.032713668   -2.016356834   0.0000009908377482
O   6.049070502   -2.016356834   -2.018618491
Ti   6.049070502   -2.016356834   0
O   8.065427336   -2.016356834   0.0000009908377482
O   10.08178417   -2.016356834   -2.018618491
Ti   10.08178417   -2.016356834   0
O   12.098141   -2.016356834   0.0000009908377482
O   14.11449784   -2.016356834   -2.018618491
Ti   14.11449784   -2.016356834   0
O   16.13085467   -2.016356834   0.0000009908377482
O   -14.04070218   -2.013837015   -10.26623392
O   2.090152489   -2.013837015   -10.26623392
O   -1.989687623   -2.009217613   -6.101463567
O   14.14116705   -2.009217613   -6.101463567
O   -7.934394712   -1.998493583   -8.108815492
O   8.19645996   -1.998493583   -8.108815492
O   -14.09296559   -1.996440241   -5.984731912
O   2.037889078   -1.996440241   -5.984731912
O   -10.03852682   -1.990727336   -6.084328722
O   6.092327848   -1.990727336   -6.084328722
O   -6.004143204   -1.990080136   -6.083047442
O   10.12671147   -1.990080136   -6.083047442
O   -11.94196347   -1.986050303   -8.130325283
O   4.188891203   -1.986050303   -8.130325283
O   -12.02466166   -1.982028458   -4.05992681
O   4.106193011   -1.982028458   -4.05992681
O   -16.11235157   -1.978576441   -4.061001626
O   0.01850310575   -1.978576441   -4.061001626
O   -3.961117034   -1.969691861   -4.065092522
O   12.16973764   -1.969691861   -4.065092522
O   -7.98662242   -1.969407879   -4.067282587
O   8.144232252   -1.969407879   -4.067282587
Ti   -2.105881667   -1.890606016   -8.006571409
Ti   14.02497301   -1.890606016   -8.006571409
Ti   -6.114915903   -1.876260809   -7.981058257
Ti   10.01593877   -1.876260809   -7.981058257
O   -1.96183568   -0.07903626032   -8.10874312
O   14.16901899   -0.07903626032   -8.10874312
Ba   -12.1552491   -0.06864158556   -6.204508387
Ba   3.97560557   -0.06864158556   -6.204508387
O   -5.96584264   -0.06263566953   -8.102214412
O   10.16501203   -0.06263566953   -8.102214412
Ba   -16.12377355   -0.05543354981   -6.197898525
Ba   0.007081126214   -0.05543354981   -6.197898525
O   -14.11449784   0   0.0000009908377482
Ba   -12.098141   0   -2.03146445
O   -10.08178417   0   0.0000009908377482
Ba   -8.065427336   0   -2.03146445
O   -6.049070502   0   0.0000009908377482
Ba   -4.032713668   0   -2.03146445
O   -2.016356834   0   0.0000009908377482
Ba   0   0   -2.03146445
O   2.016356834   0   0.0000009908377482
Ba   4.032713668   0   -2.03146445
O   6.049070502   0   0.0000009908377482
Ba   8.065427336   0   -2.03146445
O   10.08178417   0   0.0000009908377482
Ba   12.098141   0   -2.03146445
O   14.11449784   0   0.0000009908377482
Ba   16.13085467   0   -2.03146445
Ba   -8.086676559   0.0136600965   -6.162551686
Ba   8.044178113   0.0136600965   -6.162551686
Ba   -4.038632037   0.02362253211   -6.146941068
Ba   12.09222264   0.02362253211   -6.146941068
O   -10.0478383   0.07156279825   -4.07036836
O   6.08301637   0.07156279825   -4.07036836
O   -1.980595068   0.07931090788   -4.069911272
O   14.1502596   0.07931090788   -4.069911272
O   -6.009585773   0.07984578363   -4.064112561
O   10.1212689   0.07984578363   -4.064112561
O   -14.08799227   0.08056086805   -4.060148399
O   2.042862406   0.08056086805   -4.060148399
O   -10.01423202   0.1192645536   -8.107502282
O   6.116622655   0.1192645536   -8.107502282
O   -14.07592765   0.1294905121   -8.093931329
O   2.05492702   0.1294905121   -8.093931329
Ti   -10.1890502   1.914972247   -4.063275181
Ti   5.941804473   1.914972247   -4.063275181
Ti   -14.21449385   1.915110611   -4.066504611
Ti   1.916360821   1.915110611   -4.066504611
Ti   -14.21939314   1.915949584   -7.999417202
Ti   1.911461532   1.915949584   -7.999417202
Ti   -2.098558414   1.920908966   -4.052448578
Ti   14.03229626   1.920908966   -4.052448578
Ti   -10.18383984   1.925841413   -7.982191752
Ti   5.94701483   1.925841413   -7.982191752
Ti   -6.14069518   1.930630469   -4.050525034
Ti   9.990159492   1.930630469   -4.050525034
O   -3.904609172   1.985167324   -8.103764759
O   12.2262455   1.985167324   -8.103764759
O   -14.11449784   2.016356834   -2.018618491
Ti   -14.11449784   2.016356834   0
O   -12.098141   2.016356834   0.0000009908377482
O   -10.08178417   2.016356834   -2.018618491
Ti   -10.08178417   2.016356834   0
O   -8.065427336   2.016356834   0.0000009908377482
O   -6.049070502   2.016356834   -2.018618491
Ti   -6.049070502   2.016356834   0
O   -4.032713668   2.016356834   0.0000009908377482
O   -2.016356834   2.016356834   -2.018618491
Ti   -2.016356834   2.016356834   0
O   0   2.016356834   0.0000009908377482
O   2.016356834   2.016356834   -2.018618491
Ti   2.016356834   2.016356834   0
O   4.032713668   2.016356834   0.0000009908377482
O   6.049070502   2.016356834   -2.018618491
Ti   6.049070502   2.016356834   0
O   8.065427336   2.016356834   0.0000009908377482
O   10.08178417   2.016356834   -2.018618491
Ti   10.08178417   2.016356834   0
O   12.098141   2.016356834   0.0000009908377482
O   14.11449784   2.016356834   -2.018618491
Ti   14.11449784   2.016356834   0
O   16.13085467   2.016356834   0.0000009908377482
O   -7.925917576   2.032444743   -8.100615244
O   8.204937096   2.032444743   -8.100615244
O   -1.977273032   2.03397326   -6.082244824
O   14.15358164   2.03397326   -6.082244824
O   -16.03646533   2.040974723   -8.105444148
O   0.09438933882   2.040974723   -8.105444148
O   -6.003628558   2.04339252   -6.077098387
O   10.12722611   2.04339252   -6.077098387
O   -10.0505634   2.053266642   -6.080204184
O   6.080291274   2.053266642   -6.080204184
O   -12.0324635   2.053455586   -4.069093381
O   4.098391172   2.053455586   -4.069093381
O   -14.09091637   2.056037469   -6.083065219
O   2.039938299   2.056037469   -6.083065219
O   -16.06784374   2.058985246   -4.06607163
O   0.06301093652   2.058985246   -4.06607163
O   -7.990163615   2.059287484   -4.068262235
O   8.140691057   2.059287484   -4.068262235
O   -3.956969562   2.063074618   -4.063889126
O   12.17388511   2.063074618   -4.063889126
O   -11.98847583   2.073443211   -8.106129452
O   4.142378844   2.073443211   -8.106129452
Ti   -2.093787197   2.144874787   -7.979670507
Ti   14.03706748   2.144874787   -7.979670507
Ti   -6.119256513   2.147499209   -7.980184428
Ti   10.01159816   2.147499209   -7.980184428
O   -1.957285314   3.96249834   -8.103681311
O   14.17356936   3.96249834   -8.103681311
O   -5.962247186   3.963347545   -8.104344877
O   10.16860749   3.963347545   -8.104344877
