600
9x1x1 with h; 3 layers free; slab visualization
Ba  0  0  -2.03146445
Ba  0  0  2.031467231
Ba  0  0  6.154482055
Ba  0.00004026946888  -0.05713396853  -6.000158294
H  0.0000196824656  -0.9903290662  -8.878919372
O  0.000008760667173  -1.924413806  -8.569612093
O  0.00004074734545  1.977535788  -4.112306164
O  2.016356834  0  0.0000009908377482
O  2.016356834  0  4.027872504
O  2.016356834  0  8.05388875
O  2.016356774  -0.00971265658  -8.261618853
O  0  2.016356834  0.0000009908377482
O  0  2.016356834  4.027872504
O  0  2.016356834  8.05388875
O  0  -2.016356834  0.0000009908377482
O  0  -2.016356834  4.027872504
O  0  -2.016356834  8.05388875
O  -2.016356834  0  0.0000009908377482
O  -2.016356834  0  4.027872504
O  -2.016356834  0  8.05388875
O  -2.016356894  -0.00971265658  -8.261618853
O  2.016393343  -0.03596089057  -4.089777446
O  -2.016320325  -0.03596089057  -4.089777446
O  0.00004074734545  -2.05517788  -4.112306164
O  0.000008760667173  2.108299862  -8.569612093
Ti  2.016370454  1.88952592  -8.082311039
Ti  -2.016343214  1.88952592  -8.082311039
O  2.016410355  1.965945151  -6.276416113
O  -2.016303313  1.965945151  -6.276416113
Ti  2.016380956  1.989511108  -3.936867099
Ti  -2.016332712  1.989511108  -3.936867099
O  2.016356834  2.016356834  -2.018618491
Ti  2.016356834  2.016356834  0
O  2.016356834  2.016356834  2.018619954
Ti  2.016356834  2.016356834  4.010838971
O  2.016356834  2.016356834  6.065608221
Ti  2.016356834  2.016356834  7.946455662
O  2.016356834  -2.016356834  -2.018618491
Ti  2.016356834  -2.016356834  0
O  2.016356834  -2.016356834  2.018619954
Ti  2.016356834  -2.016356834  4.010838971
O  2.016356834  -2.016356834  6.065608221
Ti  2.016356834  -2.016356834  7.946455662
O  -2.016356834  2.016356834  -2.018618491
Ti  -2.016356834  2.016356834  0
O  -2.016356834  2.016356834  2.018619954
Ti  -2.016356834  2.016356834  4.010838971
O  -2.016356834  2.016356834  6.065608221
Ti  -2.016356834  2.016356834  7.946455662
O  -2.016356834  -2.016356834  -2.018618491
Ti  -2.016356834  -2.016356834  0
O  -2.016356834  -2.016356834  2.018619954
Ti  -2.016356834  -2.016356834  4.010838971
O  -2.016356834  -2.016356834  6.065608221
Ti  -2.016356834  -2.016356834  7.946455662
Ti  2.016380956  -2.04320256  -3.936867099
Ti  -2.016332712  -2.04320256  -3.936867099
O  2.016410355  -2.066768517  -6.276416113
O  -2.016303313  -2.066768517  -6.276416113
Ti  2.016370454  -2.143187748  -8.082311039
Ti  -2.016343214  -2.143187748  -8.082311039
H  0.0000196824656  3.042384602  -8.878919372
Ba  0.00004026946888  3.9755797  -6.000158294
Ba  4.032713668  0  -2.03146445
Ba  4.032713668  0  2.031467231
Ba  4.032713668  0  6.154482055
Ba  0  4.032713668  -2.03146445
Ba  0  4.032713668  2.031467231
Ba  0  4.032713668  6.154482055
Ba  0  -4.032713668  -2.03146445
Ba  0  -4.032713668  2.031467231
Ba  0  -4.032713668  6.154482055
Ba  -4.032713668  0  -2.03146445
Ba  -4.032713668  0  2.031467231
Ba  -4.032713668  0  6.154482055
Ba  4.032753938  -0.05713396853  -6.000158294
Ba  -4.032673399  -0.05713396853  -6.000158294
Ba  0.00004026946888  -4.089847637  -6.000158294
H  4.032733351  -0.9903290662  -8.878919372
H  -4.032693986  -0.9903290662  -8.878919372
O  4.032722429  -1.924413806  -8.569612093
O  -4.032704907  -1.924413806  -8.569612093
O  2.016393343  3.996752778  -4.089777446
O  -2.016320325  3.996752778  -4.089777446
O  4.032754415  1.977535788  -4.112306164
O  -4.032672921  1.977535788  -4.112306164
O  2.016356774  4.023001012  -8.261618853
O  -2.016356894  4.023001012  -8.261618853
O  4.032713668  2.016356834  0.0000009908377482
O  4.032713668  2.016356834  4.027872504
O  4.032713668  2.016356834  8.05388875
O  2.016356834  4.032713668  0.0000009908377482
O  2.016356834  4.032713668  4.027872504
O  2.016356834  4.032713668  8.05388875
O  4.032713668  -2.016356834  0.0000009908377482
O  4.032713668  -2.016356834  4.027872504
O  4.032713668  -2.016356834  8.05388875
O  -2.016356834  4.032713668  0.0000009908377482
O  -2.016356834  4.032713668  4.027872504
O  -2.016356834  4.032713668  8.05388875
O  2.016356834  -4.032713668  0.0000009908377482
O  2.016356834  -4.032713668  4.027872504
O  2.016356834  -4.032713668  8.05388875
O  -4.032713668  2.016356834  0.0000009908377482
O  -4.032713668  2.016356834  4.027872504
O  -4.032713668  2.016356834  8.05388875
O  -2.016356834  -4.032713668  0.0000009908377482
O  -2.016356834  -4.032713668  4.027872504
O  -2.016356834  -4.032713668  8.05388875
O  -4.032713668  -2.016356834  0.0000009908377482
O  -4.032713668  -2.016356834  4.027872504
O  -4.032713668  -2.016356834  8.05388875
O  2.016356774  -4.042426325  -8.261618853
O  -2.016356894  -4.042426325  -8.261618853
O  4.032754415  -2.05517788  -4.112306164
O  -4.032672921  -2.05517788  -4.112306164
O  2.016393343  -4.068674559  -4.089777446
O  -2.016320325  -4.068674559  -4.089777446
O  4.032722429  2.108299862  -8.569612093
O  -4.032704907  2.108299862  -8.569612093
H  0.0000196824656  -5.023042734  -8.878919372
H  4.032733351  3.042384602  -8.878919372
H  -4.032693986  3.042384602  -8.878919372
Ba  4.032753938  3.9755797  -6.000158294
Ba  -4.032673399  3.9755797  -6.000158294
Ba  4.032713668  4.032713668  -2.03146445
Ba  4.032713668  4.032713668  2.031467231
Ba  4.032713668  4.032713668  6.154482055
Ba  4.032713668  -4.032713668  -2.03146445
Ba  4.032713668  -4.032713668  2.031467231
Ba  4.032713668  -4.032713668  6.154482055
Ba  -4.032713668  4.032713668  -2.03146445
Ba  -4.032713668  4.032713668  2.031467231
Ba  -4.032713668  4.032713668  6.154482055
Ba  -4.032713668  -4.032713668  -2.03146445
Ba  -4.032713668  -4.032713668  2.031467231
Ba  -4.032713668  -4.032713668  6.154482055
Ba  4.032753938  -4.089847637  -6.000158294
Ba  -4.032673399  -4.089847637  -6.000158294
O  0.000008760667173  -5.957127474  -8.569612093
O  0.00004074734545  6.010249456  -4.112306164
O  6.049070502  0  0.0000009908377482
O  6.049070502  0  4.027872504
O  6.049070502  0  8.05388875
O  6.049070442  -0.00971265658  -8.261618853
O  0  6.049070502  0.0000009908377482
O  0  6.049070502  4.027872504
O  0  6.049070502  8.05388875
O  6.049107012  -0.03596089057  -4.089777446
O  0  -6.049070502  0.0000009908377482
O  0  -6.049070502  4.027872504
O  0  -6.049070502  8.05388875
O  -6.049070502  0  0.0000009908377482
O  -6.049070502  0  4.027872504
O  -6.049070502  0  8.05388875
O  -6.049070562  -0.00971265658  -8.261618853
O  -6.049033993  -0.03596089057  -4.089777446
O  0.00004074734545  -6.087891548  -4.112306164
O  0.000008760667173  6.14101353  -8.569612093
Ti  2.016370454  5.922239588  -8.082311039
Ti  -2.016343214  5.922239588  -8.082311039
O  2.016410355  5.998658819  -6.276416113
O  -2.016303313  5.998658819  -6.276416113
Ti  6.049084122  1.88952592  -8.082311039
Ti  -6.049056882  1.88952592  -8.082311039
Ti  2.016380956  6.022224776  -3.936867099
Ti  -2.016332712  6.022224776  -3.936867099
O  6.049124023  1.965945151  -6.276416113
O  -6.049016982  1.965945151  -6.276416113
Ti  6.049094624  1.989511108  -3.936867099
Ti  -6.04904638  1.989511108  -3.936867099
O  6.049070502  2.016356834  -2.018618491
Ti  6.049070502  2.016356834  0
O  6.049070502  2.016356834  2.018619954
Ti  6.049070502  2.016356834  4.010838971
O  6.049070502  2.016356834  6.065608221
Ti  6.049070502  2.016356834  7.946455662
O  2.016356834  6.049070502  -2.018618491
Ti  2.016356834  6.049070502  0
O  2.016356834  6.049070502  2.018619954
Ti  2.016356834  6.049070502  4.010838971
O  2.016356834  6.049070502  6.065608221
Ti  2.016356834  6.049070502  7.946455662
O  6.049070502  -2.016356834  -2.018618491
Ti  6.049070502  -2.016356834  0
O  6.049070502  -2.016356834  2.018619954
Ti  6.049070502  -2.016356834  4.010838971
O  6.049070502  -2.016356834  6.065608221
Ti  6.049070502  -2.016356834  7.946455662
O  -2.016356834  6.049070502  -2.018618491
Ti  -2.016356834  6.049070502  0
O  -2.016356834  6.049070502  2.018619954
Ti  -2.016356834  6.049070502  4.010838971
O  -2.016356834  6.049070502  6.065608221
Ti  -2.016356834  6.049070502  7.946455662
O  2.016356834  -6.049070502  -2.018618491
Ti  2.016356834  -6.049070502  0
O  2.016356834  -6.049070502  2.018619954
Ti  2.016356834  -6.049070502  4.010838971
O  2.016356834  -6.049070502  6.065608221
Ti  2.016356834  -6.049070502  7.946455662
O  -6.049070502  2.016356834  -2.018618491
Ti  -6.049070502  2.016356834  0
O  -6.049070502  2.016356834  2.018619954
Ti  -6.049070502  2.016356834  4.010838971
O  -6.049070502  2.016356834  6.065608221
Ti  -6.049070502  2.016356834  7.946455662
O  -2.016356834  -6.049070502  -2.018618491
Ti  -2.016356834  -6.049070502  0
O  -2.016356834  -6.049070502  2.018619954
Ti  -2.016356834  -6.049070502  4.010838971
O  -2.016356834  -6.049070502  6.065608221
Ti  -2.016356834  -6.049070502  7.946455662
O  -6.049070502  -2.016356834  -2.018618491
Ti  -6.049070502  -2.016356834  0
O  -6.049070502  -2.016356834  2.018619954
Ti  -6.049070502  -2.016356834  4.010838971
O  -6.049070502  -2.016356834  6.065608221
Ti  -6.049070502  -2.016356834  7.946455662
Ti  6.049094624  -2.04320256  -3.936867099
Ti  -6.04904638  -2.04320256  -3.936867099
O  6.049124023  -2.066768517  -6.276416113
O  -6.049016982  -2.066768517  -6.276416113
Ti  2.016380956  -6.075916228  -3.936867099
Ti  -2.016332712  -6.075916228  -3.936867099
Ti  6.049084122  -2.143187748  -8.082311039
Ti  -6.049056882  -2.143187748  -8.082311039
O  2.016410355  -6.099482185  -6.276416113
O  -2.016303313  -6.099482185  -6.276416113
H  4.032733351  -5.023042734  -8.878919372
H  -4.032693986  -5.023042734  -8.878919372
Ti  2.016370454  -6.175901416  -8.082311039
Ti  -2.016343214  -6.175901416  -8.082311039
H  0.0000196824656  7.07509827  -8.878919372
O  4.032722429  -5.957127474  -8.569612093
O  -4.032704907  -5.957127474  -8.569612093
O  4.032754415  6.010249456  -4.112306164
O  -4.032672921  6.010249456  -4.112306164
O  6.049107012  3.996752778  -4.089777446
O  -6.049033993  3.996752778  -4.089777446
O  6.049070442  4.023001012  -8.261618853
O  -6.049070562  4.023001012  -8.261618853
O  6.049070502  4.032713668  0.0000009908377482
O  6.049070502  4.032713668  4.027872504
O  6.049070502  4.032713668  8.05388875
O  4.032713668  6.049070502  0.0000009908377482
O  4.032713668  6.049070502  4.027872504
O  4.032713668  6.049070502  8.05388875
O  6.049070502  -4.032713668  0.0000009908377482
O  6.049070502  -4.032713668  4.027872504
O  6.049070502  -4.032713668  8.05388875
O  -4.032713668  6.049070502  0.0000009908377482
O  -4.032713668  6.049070502  4.027872504
O  -4.032713668  6.049070502  8.05388875
O  4.032713668  -6.049070502  0.0000009908377482
O  4.032713668  -6.049070502  4.027872504
O  4.032713668  -6.049070502  8.05388875
O  -6.049070502  4.032713668  0.0000009908377482
O  -6.049070502  4.032713668  4.027872504
O  -6.049070502  4.032713668  8.05388875
O  -4.032713668  -6.049070502  0.0000009908377482
O  -4.032713668  -6.049070502  4.027872504
O  -4.032713668  -6.049070502  8.05388875
O  -6.049070502  -4.032713668  0.0000009908377482
O  -6.049070502  -4.032713668  4.027872504
O  -6.049070502  -4.032713668  8.05388875
O  6.049070442  -4.042426325  -8.261618853
O  -6.049070562  -4.042426325  -8.261618853
O  6.049107012  -4.068674559  -4.089777446
O  -6.049033993  -4.068674559  -4.089777446
O  4.032754415  -6.087891548  -4.112306164
O  -4.032672921  -6.087891548  -4.112306164
O  4.032722429  6.14101353  -8.569612093
O  -4.032704907  6.14101353  -8.569612093
Ba  0.00004026946888  8.008293368  -6.000158294
Ba  8.065427336  0  -2.03146445
Ba  8.065427336  0  2.031467231
Ba  8.065427336  0  6.154482055
Ba  0  8.065427336  -2.03146445
Ba  0  8.065427336  2.031467231
Ba  0  8.065427336  6.154482055
Ba  8.065467606  -0.05713396853  -6.000158294
Ba  0  -8.065427336  -2.03146445
Ba  0  -8.065427336  2.031467231
Ba  0  -8.065427336  6.154482055
Ba  -8.065427336  0  -2.03146445
Ba  -8.065427336  0  2.031467231
Ba  -8.065427336  0  6.154482055
Ba  -8.065387067  -0.05713396853  -6.000158294
Ba  0.00004026946888  -8.122561305  -6.000158294
H  8.065447019  -0.9903290662  -8.878919372
H  -8.065407654  -0.9903290662  -8.878919372
H  4.032733351  7.07509827  -8.878919372
H  -4.032693986  7.07509827  -8.878919372
O  2.016393343  8.029466446  -4.089777446
O  -2.016320325  8.029466446  -4.089777446
O  8.065436097  -1.924413806  -8.569612093
O  -8.065418576  -1.924413806  -8.569612093
O  2.016356774  8.05571468  -8.261618853
O  -2.016356894  8.05571468  -8.261618853
O  8.065468084  1.977535788  -4.112306164
O  -8.065386589  1.977535788  -4.112306164
O  8.065427336  2.016356834  0.0000009908377482
O  8.065427336  2.016356834  4.027872504
O  8.065427336  2.016356834  8.05388875
O  2.016356834  8.065427336  0.0000009908377482
O  2.016356834  8.065427336  4.027872504
O  2.016356834  8.065427336  8.05388875
O  8.065427336  -2.016356834  0.0000009908377482
O  8.065427336  -2.016356834  4.027872504
O  8.065427336  -2.016356834  8.05388875
O  -2.016356834  8.065427336  0.0000009908377482
O  -2.016356834  8.065427336  4.027872504
O  -2.016356834  8.065427336  8.05388875
O  2.016356834  -8.065427336  0.0000009908377482
O  2.016356834  -8.065427336  4.027872504
O  2.016356834  -8.065427336  8.05388875
O  -8.065427336  2.016356834  0.0000009908377482
O  -8.065427336  2.016356834  4.027872504
O  -8.065427336  2.016356834  8.05388875
O  -2.016356834  -8.065427336  0.0000009908377482
O  -2.016356834  -8.065427336  4.027872504
O  -2.016356834  -8.065427336  8.05388875
O  -8.065427336  -2.016356834  0.0000009908377482
O  -8.065427336  -2.016356834  4.027872504
O  -8.065427336  -2.016356834  8.05388875
O  8.065468084  -2.05517788  -4.112306164
O  2.016356774  -8.075139993  -8.261618853
O  -2.016356894  -8.075139993  -8.261618853
O  -8.065386589  -2.05517788  -4.112306164
O  8.065436097  2.108299862  -8.569612093
O  -8.065418576  2.108299862  -8.569612093
O  2.016393343  -8.101388227  -4.089777446
O  -2.016320325  -8.101388227  -4.089777446
Ti  6.049084122  5.922239588  -8.082311039
Ti  -6.049056882  5.922239588  -8.082311039
O  6.049124023  5.998658819  -6.276416113
O  -6.049016982  5.998658819  -6.276416113
Ti  6.049094624  6.022224776  -3.936867099
Ti  -6.04904638  6.022224776  -3.936867099
O  6.049070502  6.049070502  -2.018618491
Ti  6.049070502  6.049070502  0
O  6.049070502  6.049070502  2.018619954
Ti  6.049070502  6.049070502  4.010838971
O  6.049070502  6.049070502  6.065608221
Ti  6.049070502  6.049070502  7.946455662
O  6.049070502  -6.049070502  -2.018618491
Ti  6.049070502  -6.049070502  0
O  6.049070502  -6.049070502  2.018619954
Ti  6.049070502  -6.049070502  4.010838971
O  6.049070502  -6.049070502  6.065608221
Ti  6.049070502  -6.049070502  7.946455662
O  -6.049070502  6.049070502  -2.018618491
Ti  -6.049070502  6.049070502  0
O  -6.049070502  6.049070502  2.018619954
Ti  -6.049070502  6.049070502  4.010838971
O  -6.049070502  6.049070502  6.065608221
Ti  -6.049070502  6.049070502  7.946455662
O  -6.049070502  -6.049070502  -2.018618491
Ti  -6.049070502  -6.049070502  0
O  -6.049070502  -6.049070502  2.018619954
Ti  -6.049070502  -6.049070502  4.010838971
O  -6.049070502  -6.049070502  6.065608221
Ti  -6.049070502  -6.049070502  7.946455662
Ti  6.049094624  -6.075916228  -3.936867099
Ti  -6.04904638  -6.075916228  -3.936867099
O  6.049124023  -6.099482185  -6.276416113
O  -6.049016982  -6.099482185  -6.276416113
H  8.065447019  3.042384602  -8.878919372
H  -8.065407654  3.042384602  -8.878919372
Ti  6.049084122  -6.175901416  -8.082311039
Ti  -6.049056882  -6.175901416  -8.082311039
Ba  4.032753938  8.008293368  -6.000158294
Ba  -4.032673399  8.008293368  -6.000158294
Ba  8.065467606  3.9755797  -6.000158294
Ba  -8.065387067  3.9755797  -6.000158294
Ba  8.065427336  4.032713668  -2.03146445
Ba  8.065427336  4.032713668  2.031467231
Ba  8.065427336  4.032713668  6.154482055
Ba  4.032713668  8.065427336  -2.03146445
Ba  4.032713668  8.065427336  2.031467231
Ba  4.032713668  8.065427336  6.154482055
Ba  8.065427336  -4.032713668  -2.03146445
Ba  8.065427336  -4.032713668  2.031467231
Ba  8.065427336  -4.032713668  6.154482055
Ba  -4.032713668  8.065427336  -2.03146445
Ba  -4.032713668  8.065427336  2.031467231
Ba  -4.032713668  8.065427336  6.154482055
Ba  4.032713668  -8.065427336  -2.03146445
Ba  4.032713668  -8.065427336  2.031467231
Ba  4.032713668  -8.065427336  6.154482055
Ba  -8.065427336  4.032713668  -2.03146445
Ba  -8.065427336  4.032713668  2.031467231
Ba  -8.065427336  4.032713668  6.154482055
Ba  -4.032713668  -8.065427336  -2.03146445
Ba  -4.032713668  -8.065427336  2.031467231
Ba  -4.032713668  -8.065427336  6.154482055
Ba  -8.065427336  -4.032713668  -2.03146445
Ba  -8.065427336  -4.032713668  2.031467231
Ba  -8.065427336  -4.032713668  6.154482055
Ba  8.065467606  -4.089847637  -6.000158294
Ba  -8.065387067  -4.089847637  -6.000158294
H  0.0000196824656  -9.055756402  -8.878919372
Ba  4.032753938  -8.122561305  -6.000158294
Ba  -4.032673399  -8.122561305  -6.000158294
H  8.065447019  -5.023042734  -8.878919372
H  -8.065407654  -5.023042734  -8.878919372
H  4.032733351  -9.055756402  -8.878919372
H  -4.032693986  -9.055756402  -8.878919372
O  0.000008760667173  -9.989841142  -8.569612093
O  8.065436097  -5.957127474  -8.569612093
O  -8.065418576  -5.957127474  -8.569612093
O  0.00004074734545  10.04296312  -4.112306164
O  6.049107012  8.029466446  -4.089777446
O  -6.049033993  8.029466446  -4.089777446
O  8.065468084  6.010249456  -4.112306164
O  -8.065386589  6.010249456  -4.112306164
O  6.049070442  8.05571468  -8.261618853
O  -6.049070562  8.05571468  -8.261618853
O  8.065427336  6.049070502  0.0000009908377482
O  8.065427336  6.049070502  4.027872504
O  8.065427336  6.049070502  8.05388875
O  6.049070502  8.065427336  0.0000009908377482
O  6.049070502  8.065427336  4.027872504
O  6.049070502  8.065427336  8.05388875
O  10.08178417  0  0.0000009908377482
O  10.08178417  0  4.027872504
O  10.08178417  0  8.05388875
O  10.08178411  -0.00971265658  -8.261618853
O  0  10.08178417  0.0000009908377482
O  0  10.08178417  4.027872504
O  0  10.08178417  8.05388875
O  8.065427336  -6.049070502  0.0000009908377482
O  8.065427336  -6.049070502  4.027872504
O  8.065427336  -6.049070502  8.05388875
O  10.08182068  -0.03596089057  -4.089777446
O  -6.049070502  8.065427336  0.0000009908377482
O  -6.049070502  8.065427336  4.027872504
O  -6.049070502  8.065427336  8.05388875
O  6.049070502  -8.065427336  0.0000009908377482
O  6.049070502  -8.065427336  4.027872504
O  6.049070502  -8.065427336  8.05388875
O  -8.065427336  6.049070502  0.0000009908377482
O  -8.065427336  6.049070502  4.027872504
O  -8.065427336  6.049070502  8.05388875
O  -6.049070502  -8.065427336  0.0000009908377482
O  -6.049070502  -8.065427336  4.027872504
O  -6.049070502  -8.065427336  8.05388875
O  -8.065427336  -6.049070502  0.0000009908377482
O  -8.065427336  -6.049070502  4.027872504
O  -8.065427336  -6.049070502  8.05388875
O  6.049070442  -8.075139993  -8.261618853
O  -6.049070562  -8.075139993  -8.261618853
O  8.065468084  -6.087891548  -4.112306164
O  -8.065386589  -6.087891548  -4.112306164
O  6.049107012  -8.101388227  -4.089777446
O  -6.049033993  -8.101388227  -4.089777446
O  8.065436097  6.14101353  -8.569612093
O  -8.065418576  6.14101353  -8.569612093
Ti  2.016370454  9.954953257  -8.082311039
Ti  -2.016343214  9.954953257  -8.082311039
O  2.016410355  10.03137249  -6.276416113
O  -2.016303313  10.03137249  -6.276416113
Ti  2.016380956  10.05493844  -3.936867099
Ti  -2.016332712  10.05493844  -3.936867099
Ti  10.08179779  1.88952592  -8.082311039
O  10.08183769  1.965945151  -6.276416113
Ti  10.08180829  1.989511108  -3.936867099
O  10.08178417  2.016356834  -2.018618491
Ti  10.08178417  2.016356834  0
O  10.08178417  2.016356834  2.018619954
Ti  10.08178417  2.016356834  4.010838971
O  10.08178417  2.016356834  6.065608221
Ti  10.08178417  2.016356834  7.946455662
O  2.016356834  10.08178417  -2.018618491
Ti  2.016356834  10.08178417  0
O  2.016356834  10.08178417  2.018619954
Ti  2.016356834  10.08178417  4.010838971
O  2.016356834  10.08178417  6.065608221
Ti  2.016356834  10.08178417  7.946455662
O  10.08178417  -2.016356834  -2.018618491
Ti  10.08178417  -2.016356834  0
O  10.08178417  -2.016356834  2.018619954
Ti  10.08178417  -2.016356834  4.010838971
O  10.08178417  -2.016356834  6.065608221
Ti  10.08178417  -2.016356834  7.946455662
O  -2.016356834  10.08178417  -2.018618491
Ti  -2.016356834  10.08178417  0
O  -2.016356834  10.08178417  2.018619954
Ti  -2.016356834  10.08178417  4.010838971
O  -2.016356834  10.08178417  6.065608221
Ti  -2.016356834  10.08178417  7.946455662
Ti  10.08180829  -2.04320256  -3.936867099
O  10.08183769  -2.066768517  -6.276416113
Ti  10.08179779  -2.143187748  -8.082311039
H  8.065447019  7.07509827  -8.878919372
H  -8.065407654  7.07509827  -8.878919372
O  4.032722429  -9.989841142  -8.569612093
O  -4.032704907  -9.989841142  -8.569612093
O  4.032754415  10.04296312  -4.112306164
O  -4.032672921  10.04296312  -4.112306164
O  10.08182068  3.996752778  -4.089777446
O  10.08178411  4.023001012  -8.261618853
O  10.08178417  4.032713668  0.0000009908377482
O  10.08178417  4.032713668  4.027872504
O  10.08178417  4.032713668  8.05388875
O  4.032713668  10.08178417  0.0000009908377482
O  4.032713668  10.08178417  4.027872504
O  4.032713668  10.08178417  8.05388875
O  10.08178417  -4.032713668  0.0000009908377482
O  10.08178417  -4.032713668  4.027872504
O  10.08178417  -4.032713668  8.05388875
O  -4.032713668  10.08178417  0.0000009908377482
O  -4.032713668  10.08178417  4.027872504
O  -4.032713668  10.08178417  8.05388875
O  10.08178411  -4.042426325  -8.261618853
O  10.08182068  -4.068674559  -4.089777446
Ba  8.065467606  8.008293368  -6.000158294
Ba  -8.065387067  8.008293368  -6.000158294
Ba  8.065427336  8.065427336  -2.03146445
Ba  8.065427336  8.065427336  2.031467231
Ba  8.065427336  8.065427336  6.154482055
Ba  8.065427336  -8.065427336  -2.03146445
Ba  8.065427336  -8.065427336  2.031467231
Ba  8.065427336  -8.065427336  6.154482055
Ba  -8.065427336  8.065427336  -2.03146445
Ba  -8.065427336  8.065427336  2.031467231
Ba  -8.065427336  8.065427336  6.154482055
Ba  -8.065427336  -8.065427336  -2.03146445
Ba  -8.065427336  -8.065427336  2.031467231
Ba  -8.065427336  -8.065427336  6.154482055
Ba  8.065467606  -8.122561305  -6.000158294
Ba  -8.065387067  -8.122561305  -6.000158294
Ti  6.049084122  9.954953257  -8.082311039
Ti  -6.049056882  9.954953257  -8.082311039
Ti  10.08179779  5.922239588  -8.082311039
O  6.049124023  10.03137249  -6.276416113
O  -6.049016982  10.03137249  -6.276416113
O  10.08183769  5.998658819  -6.276416113
Ti  6.049094624  10.05493844  -3.936867099
Ti  -6.04904638  10.05493844  -3.936867099
Ti  10.08180829  6.022224776  -3.936867099
O  10.08178417  6.049070502  -2.018618491
Ti  10.08178417  6.049070502  0
O  10.08178417  6.049070502  2.018619954
Ti  10.08178417  6.049070502  4.010838971
O  10.08178417  6.049070502  6.065608221
Ti  10.08178417  6.049070502  7.946455662
O  6.049070502  10.08178417  -2.018618491
Ti  6.049070502  10.08178417  0
O  6.049070502  10.08178417  2.018619954
Ti  6.049070502  10.08178417  4.010838971
O  6.049070502  10.08178417  6.065608221
Ti  6.049070502  10.08178417  7.946455662
O  10.08178417  -6.049070502  -2.018618491
Ti  10.08178417  -6.049070502  0
O  10.08178417  -6.049070502  2.018619954
Ti  10.08178417  -6.049070502  4.010838971
O  10.08178417  -6.049070502  6.065608221
Ti  10.08178417  -6.049070502  7.946455662
O  -6.049070502  10.08178417  -2.018618491
Ti  -6.049070502  10.08178417  0
O  -6.049070502  10.08178417  2.018619954
Ti  -6.049070502  10.08178417  4.010838971
O  -6.049070502  10.08178417  6.065608221
Ti  -6.049070502  10.08178417  7.946455662
Ti  10.08180829  -6.075916228  -3.936867099
O  10.08183769  -6.099482185  -6.276416113
Ti  10.08179779  -6.175901416  -8.082311039
H  8.065447019  -9.055756402  -8.878919372
H  -8.065407654  -9.055756402  -8.878919372
O  8.065436097  -9.989841142  -8.569612093
O  -8.065418576  -9.989841142  -8.569612093
O  8.065468084  10.04296312  -4.112306164
O  -8.065386589  10.04296312  -4.112306164
O  10.08182068  8.029466446  -4.089777446
O  10.08178411  8.05571468  -8.261618853
O  10.08178417  8.065427336  0.0000009908377482
O  10.08178417  8.065427336  4.027872504
O  10.08178417  8.065427336  8.05388875
O  8.065427336  10.08178417  0.0000009908377482
O  8.065427336  10.08178417  4.027872504
O  8.065427336  10.08178417  8.05388875
O  10.08178417  -8.065427336  0.0000009908377482
O  10.08178417  -8.065427336  4.027872504
O  10.08178417  -8.065427336  8.05388875
O  -8.065427336  10.08178417  0.0000009908377482
O  -8.065427336  10.08178417  4.027872504
O  -8.065427336  10.08178417  8.05388875
O  10.08178411  -8.075139993  -8.261618853
O  10.08182068  -8.101388227  -4.089777446
Ti  10.08179779  9.954953257  -8.082311039
O  10.08183769  10.03137249  -6.276416113
Ti  10.08180829  10.05493844  -3.936867099
O  10.08178417  10.08178417  -2.018618491
Ti  10.08178417  10.08178417  0
O  10.08178417  10.08178417  2.018619954
Ti  10.08178417  10.08178417  4.010838971
O  10.08178417  10.08178417  6.065608221
Ti  10.08178417  10.08178417  7.946455662